
Version,
  8.3;                                    !- Version Identifier

LifeCycleCost:Parameters,
  {a7ab93a1-aad1-4452-ac87-985199a9bca7}, !- Name
  EndOfYear,                              !- Discounting Convention
  ConstantDollar,                         !- Inflation Approach
  0.03,                                   !- Real Discount Rate
  ,                                       !- Nominal Discount Rate
  ,                                       !- Inflation
  ,                                       !- Base Date Month
  2011,                                   !- Base Date Year
  ,                                       !- Service Date Month
  2011,                                   !- Service Date Year
  25,                                     !- Length of Study Period in Years
  ,                                       !- Tax rate
  None;                                   !- Depreciation Method

LifeCycleCost:UsePriceEscalation,
  U.S. Avg  Commercial-Electricity,       !- Name
  Electricity,                            !- Resource
  2011,                                   !- Escalation Start Year
  January,                                !- Escalation Start Month
  0.9838,                                 !- Year Escalation 1
  0.9730,                                 !- Year Escalation 2
  0.9632,                                 !- Year Escalation 3
  0.9611,                                 !- Year Escalation 4
  0.9571,                                 !- Year Escalation 5
  0.9553,                                 !- Year Escalation 6
  0.9539,                                 !- Year Escalation 7
  0.9521,                                 !- Year Escalation 8
  0.9546,                                 !- Year Escalation 9
  0.9550,                                 !- Year Escalation 10
  0.9553,                                 !- Year Escalation 11
  0.9564,                                 !- Year Escalation 12
  0.9575,                                 !- Year Escalation 13
  0.9596,                                 !- Year Escalation 14
  0.9618,                                 !- Year Escalation 15
  0.9614,                                 !- Year Escalation 16
  0.9618,                                 !- Year Escalation 17
  0.9618,                                 !- Year Escalation 18
  0.9593,                                 !- Year Escalation 19
  0.9589,                                 !- Year Escalation 20
  0.9607,                                 !- Year Escalation 21
  0.9625,                                 !- Year Escalation 22
  0.9650,                                 !- Year Escalation 23
  0.9708,                                 !- Year Escalation 24
  0.9751,                                 !- Year Escalation 25
  0.9762,                                 !- Year Escalation 26
  0.9766,                                 !- Year Escalation 27
  0.9766,                                 !- Year Escalation 28
  0.9769,                                 !- Year Escalation 29
  0.9773;                                 !- Year Escalation 30

LifeCycleCost:UsePriceEscalation,
  U.S. Avg  Commercial-Distillate Oil,    !- Name
  FuelOil#1,                              !- Resource
  2011,                                   !- Escalation Start Year
  January,                                !- Escalation Start Month
  0.9714,                                 !- Year Escalation 1
  0.9730,                                 !- Year Escalation 2
  0.9942,                                 !- Year Escalation 3
  1.0164,                                 !- Year Escalation 4
  1.0541,                                 !- Year Escalation 5
  1.0928,                                 !- Year Escalation 6
  1.1267,                                 !- Year Escalation 7
  1.1580,                                 !- Year Escalation 8
  1.1792,                                 !- Year Escalation 9
  1.1967,                                 !- Year Escalation 10
  1.2200,                                 !- Year Escalation 11
  1.2333,                                 !- Year Escalation 12
  1.2566,                                 !- Year Escalation 13
  1.2709,                                 !- Year Escalation 14
  1.2826,                                 !- Year Escalation 15
  1.2985,                                 !- Year Escalation 16
  1.3102,                                 !- Year Escalation 17
  1.3250,                                 !- Year Escalation 18
  1.3261,                                 !- Year Escalation 19
  1.3282,                                 !- Year Escalation 20
  1.3324,                                 !- Year Escalation 21
  1.3356,                                 !- Year Escalation 22
  1.3431,                                 !- Year Escalation 23
  1.3510,                                 !- Year Escalation 24
  1.3568,                                 !- Year Escalation 25
  1.3606,                                 !- Year Escalation 26
  1.3637,                                 !- Year Escalation 27
  1.3674,                                 !- Year Escalation 28
  1.3706,                                 !- Year Escalation 29
  1.3743;                                 !- Year Escalation 30

LifeCycleCost:UsePriceEscalation,
  U.S. Avg  Commercial-Residual Oil,      !- Name
  FuelOil#2,                              !- Resource
  2011,                                   !- Escalation Start Year
  January,                                !- Escalation Start Month
  0.8469,                                 !- Year Escalation 1
  0.8257,                                 !- Year Escalation 2
  0.8681,                                 !- Year Escalation 3
  0.8988,                                 !- Year Escalation 4
  0.9289,                                 !- Year Escalation 5
  0.9604,                                 !- Year Escalation 6
  0.9897,                                 !- Year Escalation 7
  1.0075,                                 !- Year Escalation 8
  1.0314,                                 !- Year Escalation 9
  1.0554,                                 !- Year Escalation 10
  1.0861,                                 !- Year Escalation 11
  1.1278,                                 !- Year Escalation 12
  1.1497,                                 !- Year Escalation 13
  1.1620,                                 !- Year Escalation 14
  1.1743,                                 !- Year Escalation 15
  1.1852,                                 !- Year Escalation 16
  1.1948,                                 !- Year Escalation 17
  1.2037,                                 !- Year Escalation 18
  1.2071,                                 !- Year Escalation 19
  1.2119,                                 !- Year Escalation 20
  1.2139,                                 !- Year Escalation 21
  1.2194,                                 !- Year Escalation 22
  1.2276,                                 !- Year Escalation 23
  1.2365,                                 !- Year Escalation 24
  1.2420,                                 !- Year Escalation 25
  1.2461,                                 !- Year Escalation 26
  1.2509,                                 !- Year Escalation 27
  1.2550,                                 !- Year Escalation 28
  1.2591,                                 !- Year Escalation 29
  1.2638;                                 !- Year Escalation 30

LifeCycleCost:UsePriceEscalation,
  U.S. Avg  Commercial-Natural gas,       !- Name
  NaturalGas,                             !- Resource
  2011,                                   !- Escalation Start Year
  January,                                !- Escalation Start Month
  0.9823,                                 !- Year Escalation 1
  0.9557,                                 !- Year Escalation 2
  0.9279,                                 !- Year Escalation 3
  0.9257,                                 !- Year Escalation 4
  0.9346,                                 !- Year Escalation 5
  0.9412,                                 !- Year Escalation 6
  0.9512,                                 !- Year Escalation 7
  0.9645,                                 !- Year Escalation 8
  0.9856,                                 !- Year Escalation 9
  1.0067,                                 !- Year Escalation 10
  1.0222,                                 !- Year Escalation 11
  1.0410,                                 !- Year Escalation 12
  1.0610,                                 !- Year Escalation 13
  1.0787,                                 !- Year Escalation 14
  1.0942,                                 !- Year Escalation 15
  1.1098,                                 !- Year Escalation 16
  1.1220,                                 !- Year Escalation 17
  1.1308,                                 !- Year Escalation 18
  1.1386,                                 !- Year Escalation 19
  1.1486,                                 !- Year Escalation 20
  1.1619,                                 !- Year Escalation 21
  1.1763,                                 !- Year Escalation 22
  1.1918,                                 !- Year Escalation 23
  1.2118,                                 !- Year Escalation 24
  1.2284,                                 !- Year Escalation 25
  1.2439,                                 !- Year Escalation 26
  1.2605,                                 !- Year Escalation 27
  1.2772,                                 !- Year Escalation 28
  1.2938,                                 !- Year Escalation 29
  1.3115;                                 !- Year Escalation 30

LifeCycleCost:UsePriceEscalation,
  U.S. Avg  Commercial-Coal,              !- Name
  Coal,                                   !- Resource
  2011,                                   !- Escalation Start Year
  January,                                !- Escalation Start Month
  0.9970,                                 !- Year Escalation 1
  1.0089,                                 !- Year Escalation 2
  1.0089,                                 !- Year Escalation 3
  0.9941,                                 !- Year Escalation 4
  0.9941,                                 !- Year Escalation 5
  1.0000,                                 !- Year Escalation 6
  1.0030,                                 !- Year Escalation 7
  1.0059,                                 !- Year Escalation 8
  1.0089,                                 !- Year Escalation 9
  1.0119,                                 !- Year Escalation 10
  1.0148,                                 !- Year Escalation 11
  1.0178,                                 !- Year Escalation 12
  1.0208,                                 !- Year Escalation 13
  1.0267,                                 !- Year Escalation 14
  1.0297,                                 !- Year Escalation 15
  1.0356,                                 !- Year Escalation 16
  1.0415,                                 !- Year Escalation 17
  1.0534,                                 !- Year Escalation 18
  1.0564,                                 !- Year Escalation 19
  1.0593,                                 !- Year Escalation 20
  1.0653,                                 !- Year Escalation 21
  1.0712,                                 !- Year Escalation 22
  1.0742,                                 !- Year Escalation 23
  1.0801,                                 !- Year Escalation 24
  1.0831,                                 !- Year Escalation 25
  1.0831,                                 !- Year Escalation 26
  1.0861,                                 !- Year Escalation 27
  1.0890,                                 !- Year Escalation 28
  1.0920,                                 !- Year Escalation 29
  1.0950;                                 !- Year Escalation 30

Building,
  90.1-2010-LargeHotel-ASHRAE 169-2006-3B created: 2015-08-17 12:49:54 -0600, !- Name
  0,                                      !- North Axis {deg}
  City,                                   !- Terrain
  0.04,                                   !- Loads Convergence Tolerance Value
  0.2,                                    !- Temperature Convergence Tolerance Value {deltaC}
  FullInteriorAndExterior,                !- Solar Distribution
  25,                                     !- Maximum Number of Warmup Days
  6;                                      !- Minimum Number of Warmup Days

Zone,
  Banquet_Flr_6 ZN,                       !- Name
  0,                                      !- Direction of Relative North {deg}
  0,                                      !- X Origin {m}
  0,                                      !- Y Origin {m}
  0,                                      !- Z Origin {m}
  ,                                       !- Type
  ,                                       !- Multiplier
  ,                                       !- Ceiling Height {m}
  ,                                       !- Volume {m3}
  ,                                       !- Floor Area {m2}
  ,                                       !- Zone Inside Convection Algorithm
  ,                                       !- Zone Outside Convection Algorithm
  Yes;                                    !- Part of Total Floor Area

BuildingSurface:Detailed,
  Banquet_Flr_6_Ceiling,                  !- Name
  Roof,                                   !- Surface Type
  Typical IEAD Roof - Highly Reflective R-20.83, !- Construction Name
  Banquet_Flr_6 ZN,                       !- Zone Name
  Outdoors,                               !- Outside Boundary Condition
  ,                                       !- Outside Boundary Condition Object
  SunExposed,                             !- Sun Exposure
  WindExposed,                            !- Wind Exposure
  ,                                       !- View Factor to Ground
  ,                                       !- Number of Vertices
  42.367, 12.497, 19.2,                   !- X,Y,Z Vertex 1 {m}
  42.367, 22.86, 19.2,                    !- X,Y,Z Vertex 2 {m}
  10.363, 22.86, 19.2,                    !- X,Y,Z Vertex 3 {m}
  10.363, 12.497, 19.2;                   !- X,Y,Z Vertex 4 {m}

BuildingSurface:Detailed,
  Banquet_Flr_6_Floor,                    !- Name
  Floor,                                  !- Surface Type
  Floor Adiabatic construction,           !- Construction Name
  Banquet_Flr_6 ZN,                       !- Zone Name
  Adiabatic,                              !- Outside Boundary Condition
  ,                                       !- Outside Boundary Condition Object
  NoSun,                                  !- Sun Exposure
  NoWind,                                 !- Wind Exposure
  ,                                       !- View Factor to Ground
  ,                                       !- Number of Vertices
  42.367, 22.86, 16.152,                  !- X,Y,Z Vertex 1 {m}
  42.367, 12.497, 16.152,                 !- X,Y,Z Vertex 2 {m}
  10.363, 12.497, 16.152,                 !- X,Y,Z Vertex 3 {m}
  10.363, 22.86, 16.152;                  !- X,Y,Z Vertex 4 {m}

BuildingSurface:Detailed,
  Banquet_Flr_6_Wall_East,                !- Name
  Wall,                                   !- Surface Type
  LargeHotel Interior Wall,               !- Construction Name
  Banquet_Flr_6 ZN,                       !- Zone Name
  Surface,                                !- Outside Boundary Condition
  Corridor_Flr_6_Wall_3_West,             !- Outside Boundary Condition Object
  NoSun,                                  !- Sun Exposure
  NoWind,                                 !- Wind Exposure
  ,                                       !- View Factor to Ground
  ,                                       !- Number of Vertices
  42.367, 12.497, 19.2,                   !- X,Y,Z Vertex 1 {m}
  42.367, 12.497, 16.152,                 !- X,Y,Z Vertex 2 {m}
  42.367, 22.86, 16.152,                  !- X,Y,Z Vertex 3 {m}
  42.367, 22.86, 19.2;                    !- X,Y,Z Vertex 4 {m}

BuildingSurface:Detailed,
  Banquet_Flr_6_Wall_North,               !- Name
  Wall,                                   !- Surface Type
  Typical Insulated Exterior Mass Wall R-8.13, !- Construction Name
  Banquet_Flr_6 ZN,                       !- Zone Name
  Outdoors,                               !- Outside Boundary Condition
  ,                                       !- Outside Boundary Condition Object
  SunExposed,                             !- Sun Exposure
  WindExposed,                            !- Wind Exposure
  ,                                       !- View Factor to Ground
  ,                                       !- Number of Vertices
  42.367, 22.86, 19.2,                    !- X,Y,Z Vertex 1 {m}
  42.367, 22.86, 16.152,                  !- X,Y,Z Vertex 2 {m}
  10.363, 22.86, 16.152,                  !- X,Y,Z Vertex 3 {m}
  10.363, 22.86, 19.2;                    !- X,Y,Z Vertex 4 {m}

FenestrationSurface:Detailed,
  Banquet_Flr_6_Wall_North_Window,        !- Name
  Window,                                 !- Surface Type
  U 0.65 SHGC 0.25 Dbl Ref-C-H Clr 6mm/6mm Air, !- Construction Name
  Banquet_Flr_6_Wall_North,               !- Building Surface Name
  ,                                       !- Outside Boundary Condition Object
  ,                                       !- View Factor to Ground
  ,                                       !- Shading Control Name
  ,                                       !- Frame and Divider Name
  1,                                      !- Multiplier
  ,                                       !- Number of Vertices
  39.567, 22.86, 18.484,                  !- X,Y,Z Vertex 1 {m}
  39.567, 22.86, 17.264,                  !- X,Y,Z Vertex 2 {m}
  13.164, 22.86, 17.264,                  !- X,Y,Z Vertex 3 {m}
  13.164, 22.86, 18.484;                  !- X,Y,Z Vertex 4 {m}

BuildingSurface:Detailed,
  Banquet_Flr_6_Wall_South,               !- Name
  Wall,                                   !- Surface Type
  LargeHotel Interior Wall,               !- Construction Name
  Banquet_Flr_6 ZN,                       !- Zone Name
  Surface,                                !- Outside Boundary Condition
  Corridor_Flr_6_Wall_3_North,            !- Outside Boundary Condition Object
  NoSun,                                  !- Sun Exposure
  NoWind,                                 !- Wind Exposure
  ,                                       !- View Factor to Ground
  ,                                       !- Number of Vertices
  10.363, 12.497, 19.2,                   !- X,Y,Z Vertex 1 {m}
  10.363, 12.497, 16.152,                 !- X,Y,Z Vertex 2 {m}
  42.367, 12.497, 16.152,                 !- X,Y,Z Vertex 3 {m}
  42.367, 12.497, 19.2;                   !- X,Y,Z Vertex 4 {m}

BuildingSurface:Detailed,
  Banquet_Flr_6_Wall_West,                !- Name
  Wall,                                   !- Surface Type
  LargeHotel Interior Wall,               !- Construction Name
  Banquet_Flr_6 ZN,                       !- Zone Name
  Surface,                                !- Outside Boundary Condition
  Corridor_Flr_6_Wall_1_East,             !- Outside Boundary Condition Object
  NoSun,                                  !- Sun Exposure
  NoWind,                                 !- Wind Exposure
  ,                                       !- View Factor to Ground
  ,                                       !- Number of Vertices
  10.363, 22.86, 19.2,                    !- X,Y,Z Vertex 1 {m}
  10.363, 22.86, 16.152,                  !- X,Y,Z Vertex 2 {m}
  10.363, 12.497, 16.152,                 !- X,Y,Z Vertex 3 {m}
  10.363, 12.497, 19.2;                   !- X,Y,Z Vertex 4 {m}

InternalMass,
  Banquet_Flr_6 Mass,                     !- Name
  InteriorFurnishings,                    !- Construction Name
  Banquet_Flr_6 ZN,                       !- Zone Name
  663.314904;                             !- Surface Area {m2}

ZoneInfiltration:DesignFlowRate,
  Banquet_Flr_6 Infiltration,             !- Name
  Banquet_Flr_6 ZN,                       !- Zone or ZoneList Name
  HotelLarge INFIL_QUARTER_ON_SCH,        !- Schedule Name
  Flow/ExteriorArea,                      !- Design Flow Rate Calculation Method
  ,                                       !- Design Flow Rate {m3/s}
  ,                                       !- Flow per Zone Floor Area {m3/s-m2}
  0.000129450428120249,                   !- Flow per Exterior Surface Area {m3/s-m2}
  ,                                       !- Air Changes per Hour {1/hr}
  0,                                      !- Constant Term Coefficient
  0,                                      !- Temperature Term Coefficient
  0.224,                                  !- Velocity Term Coefficient
  0;                                      !- Velocity Squared Term Coefficient

ZoneControl:Thermostat,
  Banquet_Flr_6 ZN Thermostat,            !- Name
  Banquet_Flr_6 ZN,                       !- Zone or ZoneList Name
  Banquet_Flr_6 ZN Thermostat Schedule,   !- Control Type Schedule Name
  ThermostatSetpoint:DualSetpoint,        !- Control Object Type 1
  90.1-2010 - LrgHotel - Banquet Thermostat; !- Control Name 1

Schedule:Compact,
  Banquet_Flr_6 ZN Thermostat Schedule,   !- Name
  Banquet_Flr_6 ZN Thermostat Schedule Type Limits, !- Schedule Type Limits Name
  Through: 12/31,                         !- Field 1
  For: AllDays,                           !- Field 2
  Until: 24:00,                           !- Field 3
  4;                                      !- Field 4

ScheduleTypeLimits,
  Banquet_Flr_6 ZN Thermostat Schedule Type Limits, !- Name
  0,                                      !- Lower Limit Value {BasedOnField A3}
  4,                                      !- Upper Limit Value {BasedOnField A3}
  DISCRETE;                               !- Numeric Type

ThermostatSetpoint:DualSetpoint,
  90.1-2010 - LrgHotel - Banquet Thermostat, !- Name
  HotelLarge HTGSETP_SCH,                 !- Heating Setpoint Temperature Schedule Name
  HotelLarge CLGSETP_SCH;                 !- Cooling Setpoint Temperature Schedule Name

ScheduleTypeLimits,
  Temperature,                            !- Name
  ,                                       !- Lower Limit Value {BasedOnField A3}
  ,                                       !- Upper Limit Value {BasedOnField A3}
  Continuous,                             !- Numeric Type
  temperature;                            !- Unit Type

Schedule:Day:Interval,
  HotelLarge HTGSETP_SCH Default,         !- Name
  Temperature,                            !- Schedule Type Limits Name
  No,                                     !- Interpolate to Timestep
  24:00,                                  !- Time 1 {hh:mm}
  21;                                     !- Value Until Time 1

Schedule:Week:Daily,
  Schedule:Week:Daily {6792ea83-908e-40b8-a1d1-9c777249c2bc}, !- Name
  HotelLarge HTGSETP_SCH Default,         !- Sunday Schedule:Day Name
  HotelLarge HTGSETP_SCH Default,         !- Monday Schedule:Day Name
  HotelLarge HTGSETP_SCH Default,         !- Tuesday Schedule:Day Name
  HotelLarge HTGSETP_SCH Default,         !- Wednesday Schedule:Day Name
  HotelLarge HTGSETP_SCH Default,         !- Thursday Schedule:Day Name
  HotelLarge HTGSETP_SCH Default,         !- Friday Schedule:Day Name
  HotelLarge HTGSETP_SCH Default,         !- Saturday Schedule:Day Name
  HotelLarge HTGSETP_SCH Default,         !- Holiday Schedule:Day Name
  HotelLarge HTGSETP_SCH Summer Design Day, !- SummerDesignDay Schedule:Day Name
  HotelLarge HTGSETP_SCH Winter Design Day, !- WinterDesignDay Schedule:Day Name
  HotelLarge HTGSETP_SCH Default,         !- CustomDay1 Schedule:Day Name
  HotelLarge HTGSETP_SCH Default;         !- CustomDay2 Schedule:Day Name

Schedule:Year,
  HotelLarge HTGSETP_SCH,                 !- Name
  Temperature,                            !- Schedule Type Limits Name
  Schedule:Week:Daily {6792ea83-908e-40b8-a1d1-9c777249c2bc}, !- Schedule:Week Name 1
  1,                                      !- Start Month 1
  1,                                      !- Start Day 1
  12,                                     !- End Month 1
  31;                                     !- End Day 1

Schedule:Day:Interval,
  HotelLarge HTGSETP_SCH Summer Design Day, !- Name
  Temperature,                            !- Schedule Type Limits Name
  No,                                     !- Interpolate to Timestep
  24:00,                                  !- Time 1 {hh:mm}
  21;                                     !- Value Until Time 1

Schedule:Day:Interval,
  HotelLarge HTGSETP_SCH Winter Design Day, !- Name
  Temperature,                            !- Schedule Type Limits Name
  No,                                     !- Interpolate to Timestep
  24:00,                                  !- Time 1 {hh:mm}
  21;                                     !- Value Until Time 1

Schedule:Day:Interval,
  HotelLarge CLGSETP_SCH Default,         !- Name
  Temperature,                            !- Schedule Type Limits Name
  No,                                     !- Interpolate to Timestep
  24:00,                                  !- Time 1 {hh:mm}
  24;                                     !- Value Until Time 1

Schedule:Week:Daily,
  Schedule:Week:Daily {8cf2697c-d811-4f91-b361-2e451259e45d}, !- Name
  HotelLarge CLGSETP_SCH Default,         !- Sunday Schedule:Day Name
  HotelLarge CLGSETP_SCH Default,         !- Monday Schedule:Day Name
  HotelLarge CLGSETP_SCH Default,         !- Tuesday Schedule:Day Name
  HotelLarge CLGSETP_SCH Default,         !- Wednesday Schedule:Day Name
  HotelLarge CLGSETP_SCH Default,         !- Thursday Schedule:Day Name
  HotelLarge CLGSETP_SCH Default,         !- Friday Schedule:Day Name
  HotelLarge CLGSETP_SCH Default,         !- Saturday Schedule:Day Name
  HotelLarge CLGSETP_SCH Default,         !- Holiday Schedule:Day Name
  HotelLarge CLGSETP_SCH Summer Design Day, !- SummerDesignDay Schedule:Day Name
  HotelLarge CLGSETP_SCH Winter Design Day, !- WinterDesignDay Schedule:Day Name
  HotelLarge CLGSETP_SCH Default,         !- CustomDay1 Schedule:Day Name
  HotelLarge CLGSETP_SCH Default;         !- CustomDay2 Schedule:Day Name

Schedule:Year,
  HotelLarge CLGSETP_SCH,                 !- Name
  Temperature,                            !- Schedule Type Limits Name
  Schedule:Week:Daily {8cf2697c-d811-4f91-b361-2e451259e45d}, !- Schedule:Week Name 1
  1,                                      !- Start Month 1
  1,                                      !- Start Day 1
  12,                                     !- End Month 1
  31;                                     !- End Day 1

Schedule:Day:Interval,
  HotelLarge CLGSETP_SCH Summer Design Day, !- Name
  Temperature,                            !- Schedule Type Limits Name
  No,                                     !- Interpolate to Timestep
  24:00,                                  !- Time 1 {hh:mm}
  24;                                     !- Value Until Time 1

Schedule:Day:Interval,
  HotelLarge CLGSETP_SCH Winter Design Day, !- Name
  Temperature,                            !- Schedule Type Limits Name
  No,                                     !- Interpolate to Timestep
  24:00,                                  !- Time 1 {hh:mm}
  24;                                     !- Value Until Time 1

ZoneHVAC:EquipmentConnections,
  Banquet_Flr_6 ZN,                       !- Zone Name
  Banquet_Flr_6 ZN Equipment List,        !- Zone Conditioning Equipment List Name
  Banquet_Flr_6 ZN Inlet Node List,       !- Zone Air Inlet Node or NodeList Name
  ,                                       !- Zone Air Exhaust Node or NodeList Name
  Node 2,                                 !- Zone Air Node Name
  Node 113;                               !- Zone Return Air Node Name

NodeList,
  Banquet_Flr_6 ZN Inlet Node List,       !- Name
  Node 112;                               !- Node Name 1

ZoneHVAC:AirDistributionUnit,
  ADU Banquet_Flr_6 ZN VAV Term,          !- Name
  Node 112,                               !- Air Distribution Unit Outlet Node Name
  AirTerminal:SingleDuct:VAV:Reheat,      !- Air Terminal Object Type
  Banquet_Flr_6 ZN VAV Term;              !- Air Terminal Name

AirTerminal:SingleDuct:VAV:Reheat,
  Banquet_Flr_6 ZN VAV Term,              !- Name
  Always On Discrete,                     !- Availability Schedule Name
  Banquet_Flr_6 ZN VAV Term Damper Outlet, !- Damper Air Outlet Node Name
  Node 114,                               !- Air Inlet Node Name
  Autosize,                               !- Maximum Air Flow Rate {m3/s}
  Constant,                               !- Zone Minimum Air Flow Input Method
  0.88,                                   !- Constant Minimum Air Flow Fraction
  0,                                      !- Fixed Minimum Air Flow Rate {m3/s}
  ,                                       !- Minimum Air Flow Fraction Schedule Name
  Coil:Heating:Water,                     !- Reheat Coil Object Type
  Banquet_Flr_6 ZN Rht Coil,              !- Reheat Coil Name
  Autosize,                               !- Maximum Hot Water or Steam Flow Rate {m3/s}
  0,                                      !- Minimum Hot Water or Steam Flow Rate {m3/s}
  Node 112,                               !- Air Outlet Node Name
  0.001,                                  !- Convergence Tolerance
  Reverse,                                !- Damper Heating Action
  Autocalculate,                          !- Maximum Flow per Zone Floor Area During Reheat {m3/s-m2}
  0.5,                                    !- Maximum Flow Fraction During Reheat
  40.0000000000001;                       !- Maximum Reheat Air Temperature {C}

Coil:Heating:Water,
  Banquet_Flr_6 ZN Rht Coil,              !- Name
  Always On Discrete,                     !- Availability Schedule Name
  Autosize,                               !- U-Factor Times Area Value {W/K}
  Autosize,                               !- Maximum Water Flow Rate {m3/s}