
OS:Version,
  {6c1ce627-ccbc-461a-a304-c5c9f39f13ba}, !- Handle
  1.9.3;                                  !- Version Identifier

OS:Site,
  {049cd132-1f0b-48ed-9334-6b1b5beefe74}, !- Handle
  Houston Bush Intercontinental_TX_USA,   !- Name
  30,                                     !- Latitude {deg}
  -95.37,                                 !- Longitude {deg}
  -6,                                     !- Time Zone {hr}
  29,                                     !- Elevation {m}
  City;                                   !- Terrain

OS:SimulationControl,
  {3e503f63-414f-40ba-8251-d7f0e35f9d21}, !- Handle
  Yes,                                    !- Do Zone Sizing Calculation
  Yes,                                    !- Do System Sizing Calculation
  Yes,                                    !- Do Plant Sizing Calculation
  No,                                     !- Run Simulation for Sizing Periods
  Yes,                                    !- Run Simulation for Weather File Run Periods
  0.04,                                   !- Loads Convergence Tolerance Value
  0.2,                                    !- Temperature Convergence Tolerance Value {deltaC}
  FullInteriorAndExterior,                !- Solar Distribution
  25,                                     !- Maximum Number of Warmup Days
  6;                                      !- Minimum Number of Warmup Days

OS:Surface,
  {7681cd3f-6921-406a-a3f0-67e19578e4a6}, !- Handle
  Mult_Class_1_Pod_2_ZN_1_FLR_1_Wall_3,   !- Name
  Wall,                                   !- Surface Type
  ,                                       !- Construction Name
  {1dd65f10-54cf-488b-8392-1bd74048d1a3}, !- Space Name
  Surface,                                !- Outside Boundary Condition
  {c951762d-0963-4f81-8de2-f4c150e816b6}, !- Outside Boundary Condition Object
  NoSun,                                  !- Sun Exposure
  NoWind,                                 !- Wind Exposure
  ,                                       !- View Factor to Ground
  ,                                       !- Number of Vertices
  53, 9, 4,                               !- X,Y,Z Vertex 1 {m}
  53, 9, 0,                               !- X,Y,Z Vertex 2 {m}
  0, 9, 0,                                !- X,Y,Z Vertex 3 {m}
  0, 9, 4;                                !- X,Y,Z Vertex 4 {m}

OS:Connection,
  {b411aca5-76fa-4f25-b009-af5bf554651a}, !- Handle
  {a67301ef-5fc1-4fa2-9fcf-1508f8930e05}, !- Name
  ,                                       !- Source Object
  11,                                     !- Outlet Port
  ,                                       !- Target Object
  2;                                      !- Inlet Port

OS:Space,
  {1dd65f10-54cf-488b-8392-1bd74048d1a3}, !- Handle
  Mult_Class_1_Pod_2_ZN_1_FLR_1,          !- Name
  {a73902dd-4a4d-4cca-8d54-784899004d34}, !- Space Type Name
  ,                                       !- Default Construction Set Name
  ,                                       !- Default Schedule Set Name
  0,                                      !- Direction of Relative North {deg}
  -53,                                    !- X Origin {m}
  30,                                     !- Y Origin {m}
  0,                                      !- Z Origin {m}
  ,                                       !- Building Story Name
  {b0c18b33-33e7-4e1c-9918-12ce9bb0a481}, !- Thermal Zone Name
  Yes,                                    !- Part of Total Floor Area
  ;                                       !- Design Specification Outdoor Air Object Name

OS:Connection,
  {282dacd7-f327-4981-9ebb-003f49b4007d}, !- Handle
  {e5db5fb9-a60a-464a-bdab-d606688e728b}, !- Name
  ,                                       !- Source Object
  11,                                     !- Outlet Port
  ,                                       !- Target Object
  2;                                      !- Inlet Port

OS:Space,
  {33973253-86f5-45b4-8f96-16bd147f1072}, !- Handle
  Mult_Class_2_Pod_1_ZN_1_FLR_1,          !- Name
  {a73902dd-4a4d-4cca-8d54-784899004d34}, !- Space Type Name
  ,                                       !- Default Construction Set Name
  ,                                       !- Default Schedule Set Name
  0,                                      !- Direction of Relative North {deg}
  -53,                                    !- X Origin {m}
  12,                                     !- Y Origin {m}
  0,                                      !- Z Origin {m}
  ,                                       !- Building Story Name
  {4fcb112c-0b87-4a4c-a59b-6bc2a4f4fdb5}, !- Thermal Zone Name
  Yes,                                    !- Part of Total Floor Area
  ;                                       !- Design Specification Outdoor Air Object Name

OS:Surface,
  {9684dd29-dd8e-49f4-b142-b18b4e50908e}, !- Handle
  Mult_Class_1_Pod_1_ZN_1_FLR_1_Wall_1,   !- Name
  Wall,                                   !- Surface Type
  ,                                       !- Construction Name
  {1c170fc0-7ac8-4744-900d-4931fc965b6c}, !- Space Name
  Outdoors,                               !- Outside Boundary Condition
  ,                                       !- Outside Boundary Condition Object
  SunExposed,                             !- Sun Exposure
  WindExposed,                            !- Wind Exposure
  ,                                       !- View Factor to Ground
  ,                                       !- Number of Vertices
  0, 0, 4,                                !- X,Y,Z Vertex 1 {m}
  0, 0, 0,                                !- X,Y,Z Vertex 2 {m}
  53, 0, 0,                               !- X,Y,Z Vertex 3 {m}
  53, 0, 4;                               !- X,Y,Z Vertex 4 {m}

OS:Connection,
  {6c2c2453-da95-4669-8ea1-d51660b153f4}, !- Handle
  {4692b808-f2a8-4e8d-be59-bc7d79fcc486}, !- Name
  ,                                       !- Source Object
  11,                                     !- Outlet Port
  ,                                       !- Target Object
  2;                                      !- Inlet Port

OS:Space,
  {1c170fc0-7ac8-4744-900d-4931fc965b6c}, !- Handle
  Mult_Class_1_Pod_1_ZN_1_FLR_1,          !- Name
  {a73902dd-4a4d-4cca-8d54-784899004d34}, !- Space Type Name
  ,                                       !- Default Construction Set Name
  ,                                       !- Default Schedule Set Name
  0,                                      !- Direction of Relative North {deg}
  -53,                                    !- X Origin {m}
  0,                                      !- Y Origin {m}
  0,                                      !- Z Origin {m}
  ,                                       !- Building Story Name
  {2fe9dbb5-6076-43f5-8865-ec41857191cf}, !- Thermal Zone Name
  Yes,                                    !- Part of Total Floor Area
  ;                                       !- Design Specification Outdoor Air Object Name

OS:Connection,
  {47b520b8-8ca5-4dcf-a381-c3d49ec8dc1b}, !- Handle
  {46ef1c29-9e15-4c77-9e1e-d8b70a7b70d8}, !- Name
  ,                                       !- Source Object
  11,                                     !- Outlet Port
  ,                                       !- Target Object
  2;                                      !- Inlet Port

OS:Space,
  {d4af3d49-6d23-424d-bf74-2654d85b0cb2}, !- Handle
  Main_Corridor_ZN_1_FLR_1,               !- Name
  {35e497fa-d99b-4b16-8c42-32d4007f92db}, !- Space Type Name
  ,                                       !- Default Construction Set Name
  ,                                       !- Default Schedule Set Name
  0,                                      !- Direction of Relative North {deg}
  0,                                      !- X Origin {m}
  9,                                      !- Y Origin {m}
  0,                                      !- Z Origin {m}
  ,                                       !- Building Story Name
  {3b15e1ba-7b2b-4b2a-9db6-6bbfa4fb48ae}, !- Thermal Zone Name
  Yes,                                    !- Part of Total Floor Area
  ;                                       !- Design Specification Outdoor Air Object Name

OS:Surface,
  {12ff2e48-d2ca-48ae-bc7a-8cffadb26c77}, !- Handle
  Cafeteria_ZN_1_FLR_1_Wall_1,            !- Name
  Wall,                                   !- Surface Type
  ,                                       !- Construction Name
  {6f92a330-e27f-44a5-a377-b7f2e0e82d46}, !- Space Name
  Surface,                                !- Outside Boundary Condition
  {9ac29acf-36ae-4451-ac75-5a3ce8a32213}, !- Outside Boundary Condition Object
  NoSun,                                  !- Sun Exposure
  NoWind,                                 !- Wind Exposure
  ,                                       !- View Factor to Ground
  ,                                       !- Number of Vertices
  0, 0, 4,                                !- X,Y,Z Vertex 1 {m}
  0, 0, 0,                                !- X,Y,Z Vertex 2 {m}
  21, 0, 0,                               !- X,Y,Z Vertex 3 {m}
  21, 0, 4;                               !- X,Y,Z Vertex 4 {m}

OS:Connection,
  {20612f0c-466e-4321-8333-7211a1cc3ac8}, !- Handle
  {ee6cbc3c-88b4-4316-96cb-8eec4d0f5856}, !- Name
  ,                                       !- Source Object
  11,                                     !- Outlet Port
  ,                                       !- Target Object
  2;                                      !- Inlet Port

OS:Space,
  {6f92a330-e27f-44a5-a377-b7f2e0e82d46}, !- Handle
  Cafeteria_ZN_1_FLR_1,                   !- Name
  {d0022dda-584e-4775-bc22-a95189a776c1}, !- Space Type Name
  ,                                       !- Default Construction Set Name
  ,                                       !- Default Schedule Set Name
  0,                                      !- Direction of Relative North {deg}
  19,                                     !- X Origin {m}
  46,                                     !- Y Origin {m}
  0,                                      !- Z Origin {m}
  ,                                       !- Building Story Name
  {02d80fe0-e248-4cf4-8b76-3c6bbd4a6b2f}, !- Thermal Zone Name
  Yes,                                    !- Part of Total Floor Area
  ;                                       !- Design Specification Outdoor Air Object Name

OS:Meter,
  {1250f7f3-ca57-4042-9a9f-06579ab3989d}, !- Handle
  InteriorEquipment:Electricity,          !- Name
  hourly,                                 !- Reporting Frequency
  False,                                  !- Meter File Only
  False;                                  !- Cumulative

OS:Connection,
  {e4b5ae83-ecbb-4f11-a624-03e94d35bb4a}, !- Handle
  {94ccc928-917d-4e0b-97e4-c413870afab4}, !- Name
  ,                                       !- Source Object
  11,                                     !- Outlet Port
  ,                                       !- Target Object
  2;                                      !- Inlet Port

OS:Space,
  {1e89c292-14af-46d6-acf3-7d6999f75752}, !- Handle
  Mult_Class_2_Pod_2_ZN_1_FLR_1,          !- Name
  {a73902dd-4a4d-4cca-8d54-784899004d34}, !- Space Type Name
  ,                                       !- Default Construction Set Name
  ,                                       !- Default Schedule Set Name
  0,                                      !- Direction of Relative North {deg}
  -53,                                    !- X Origin {m}
  42,                                     !- Y Origin {m}
  0,                                      !- Z Origin {m}
  ,                                       !- Building Story Name
  {1e1bfca6-c5ef-426d-848b-3a20a9258043}, !- Thermal Zone Name
  Yes,                                    !- Part of Total Floor Area
  ;                                       !- Design Specification Outdoor Air Object Name

OS:Surface,
  {48d82bcb-6785-4759-a7e6-8c224ea11d5b}, !- Handle
  Corner_Class_2_Pod_2_ZN_1_FLR_1_Wall_1, !- Name
  Wall,                                   !- Surface Type
  ,                                       !- Construction Name
  {7945ebda-29cd-48c0-b3b9-9f47c3eb3c31}, !- Space Name
  Surface,                                !- Outside Boundary Condition
  {c1554a4c-fe93-4114-9b91-ec8c58cb5af5}, !- Outside Boundary Condition Object
  NoSun,                                  !- Sun Exposure
  NoWind,                                 !- Wind Exposure
  ,                                       !- View Factor to Ground
  ,                                       !- Number of Vertices
  0, 0, 4,                                !- X,Y,Z Vertex 1 {m}
  0, 0, 0,                                !- X,Y,Z Vertex 2 {m}
  11, 0, 0,                               !- X,Y,Z Vertex 3 {m}
  11, 0, 4;                               !- X,Y,Z Vertex 4 {m}

OS:Connection,
  {2a0e2fdb-4ce7-4167-9d6e-c427aedb571c}, !- Handle
  {5c29dd85-6948-49b3-b3d0-e822f8c38f0f}, !- Name
  ,                                       !- Source Object
  11,                                     !- Outlet Port
  ,                                       !- Target Object
  2;                                      !- Inlet Port

OS:Space,
  {7945ebda-29cd-48c0-b3b9-9f47c3eb3c31}, !- Handle
  Corner_Class_2_Pod_2_ZN_1_FLR_1,        !- Name
  {a73902dd-4a4d-4cca-8d54-784899004d34}, !- Space Type Name
  ,                                       !- Default Construction Set Name
  ,                                       !- Default Schedule Set Name
  0,                                      !- Direction of Relative North {deg}
  -64,                                    !- X Origin {m}
  42,                                     !- Y Origin {m}
  0,                                      !- Z Origin {m}
  ,                                       !- Building Story Name
  {68dbdbb7-be4e-48f6-b65a-81e63f6347cf}, !- Thermal Zone Name
  Yes,                                    !- Part of Total Floor Area
  ;                                       !- Design Specification Outdoor Air Object Name

OS:Connection,
  {3ad5299f-6045-40c7-b403-3ccd1b62e16b}, !- Handle
  {e9f00148-b619-45d3-8bf3-931c7d52011d}, !- Name
  ,                                       !- Source Object
  11,                                     !- Outlet Port
  ,                                       !- Target Object
  2;                                      !- Inlet Port

OS:Space,
  {088f05a3-cbc5-4944-b22e-bf93898b13bb}, !- Handle
  Mult_Class_1_Pod_3_ZN_1_FLR_1,          !- Name
  {a73902dd-4a4d-4cca-8d54-784899004d34}, !- Space Type Name
  ,                                       !- Default Construction Set Name
  ,                                       !- Default Schedule Set Name
  0,                                      !- Direction of Relative North {deg}
  -53,                                    !- X Origin {m}
  61,                                     !- Y Origin {m}
  0,                                      !- Z Origin {m}
  ,                                       !- Building Story Name
  {0b2c67da-6e99-4672-8e55-e28adf52a174}, !- Thermal Zone Name
  Yes,                                    !- Part of Total Floor Area
  ;                                       !- Design Specification Outdoor Air Object Name

OS:Meter,
  {9b8d6536-f506-4502-b833-853a4b690c59}, !- Handle
  WaterSystems:Gas,                       !- Name
  hourly,                                 !- Reporting Frequency
  False,                                  !- Meter File Only
  False;                                  !- Cumulative

OS:RunPeriod,
  {6fedbd7e-8cb1-4a81-a4ab-4fc74305bf25}, !- Handle
  Run Period 1,                           !- Name
  1,                                      !- Begin Month
  1,                                      !- Begin Day of Month
  12,                                     !- End Month
  31,                                     !- End Day of Month
  No,                                     !- Use Weather File Holidays and Special Days
  No,                                     !- Use Weather File Daylight Saving Period
  No,                                     !- Apply Weekend Holiday Rule
  Yes,                                    !- Use Weather File Rain Indicators
  Yes,                                    !- Use Weather File Snow Indicators
  1;                                      !- Number of Times Runperiod to be Repeated

OS:YearDescription,
  {043539c1-c5cd-44c5-bee2-e3f53041d5df}, !- Handle
  ,                                       !- Calendar Year
  Sunday;                                 !- Day of Week for Start Day

OS:Connection,
  {42a6c68c-75e3-4b80-bbaa-6c23255b45d5}, !- Handle
  {729642b9-24ae-45a9-9e2a-beda9414bb46}, !- Name
  ,                                       !- Source Object
  11,                                     !- Outlet Port
  ,                                       !- Target Object
  2;                                      !- Inlet Port

OS:Space,
  {a2b9324d-f87c-455f-9a99-ba9e62385caa}, !- Handle
  Computer_Class_ZN_1_FLR_1,              !- Name
  {a73902dd-4a4d-4cca-8d54-784899004d34}, !- Space Type Name
  ,                                       !- Default Construction Set Name
  ,                                       !- Default Schedule Set Name
  0,                                      !- Direction of Relative North {deg}
  -18,                                    !- X Origin {m}
  73,                                     !- Y Origin {m}
  0,                                      !- Z Origin {m}
  ,                                       !- Building Story Name
  {17f23c9a-b0ba-4bcc-a397-3f6d4dfb78a9}, !- Thermal Zone Name
  Yes,                                    !- Part of Total Floor Area
  ;                                       !- Design Specification Outdoor Air Object Name

OS:Building,
  {7ff83cae-b8c0-45c2-96d3-1a5681aaeb1f}, !- Handle
  DOE Ref Pre-1980-PrimarySchool-ASHRAE 169-2006-2A created: 2015-12-12 17:38:22 -0700, !- Name
  ,                                       !- Building Sector Type
  0,                                      !- North Axis {deg}
  ,                                       !- Nominal Floor to Floor Height {m}
  ,                                       !- Space Type Name
  {af832656-a13a-4e9a-adb1-403620f9ef8a}, !- Default Construction Set Name
  ,                                       !- Default Schedule Set Name
  ,                                       !- Standards Number of Stories
  ,                                       !- Standards Number of Above Ground Stories
  ,                                       !- Standards Building Type
  ,                                       !- Standards Number of Living Units
  ,                                       !- Relocatable
  ;                                       !- Nominal Floor to Ceiling Height {m}

OS:Surface,
  {1fa9c531-6874-4ed6-9564-2c99089a5331}, !- Handle
  Corridor_Pod_3_ZN_1_FLR_1_Wall_3,       !- Name
  Wall,                                   !- Surface Type
  ,                                       !- Construction Name
  {cfb446e1-866e-4b1a-8f33-842215992271}, !- Space Name
  Surface,                                !- Outside Boundary Condition
  {0b9d14cf-b23a-4e97-a355-d299f55e6ae7}, !- Outside Boundary Condition Object
  NoSun,                                  !- Sun Exposure
  NoWind,                                 !- Wind Exposure
  ,                                       !- View Factor to Ground
  ,                                       !- Number of Vertices
  64, 0, 4,                               !- X,Y,Z Vertex 1 {m}
  64, 0, 0,                               !- X,Y,Z Vertex 2 {m}
  64, 3, 0,                               !- X,Y,Z Vertex 3 {m}
  64, 3, 4;                               !- X,Y,Z Vertex 4 {m}

OS:Connection,
  {3363d6f7-9f99-4f65-81f9-6bd7e439b55f}, !- Handle
  {3d0f1916-7d31-4125-a81f-8a0f57015438}, !- Name
  ,                                       !- Source Object
  11,                                     !- Outlet Port
  ,                                       !- Target Object
  2;                                      !- Inlet Port

OS:Space,
  {cfb446e1-866e-4b1a-8f33-842215992271}, !- Handle
  Corridor_Pod_3_ZN_1_FLR_1,              !- Name
  {35e497fa-d99b-4b16-8c42-32d4007f92db}, !- Space Type Name
  ,                                       !- Default Construction Set Name
  ,                                       !- Default Schedule Set Name
  0,                                      !- Direction of Relative North {deg}
  -64,                                    !- X Origin {m}
  70,                                     !- Y Origin {m}
  0,                                      !- Z Origin {m}
  ,                                       !- Building Story Name
  {571347ee-3eb5-4166-9e0a-3c0c6d0aec8f}, !- Thermal Zone Name
  Yes,                                    !- Part of Total Floor Area
  ;                                       !- Design Specification Outdoor Air Object Name

OS:SubSurface,
  {8395065a-5d45-4593-b774-046fe7fa6330}, !- Handle
  Corner_Class_1_Pod_3_ZN_1_FLR_1_Wall_4_window_1, !- Name
  FixedWindow,                            !- Sub Surface Type
  ,                                       !- Construction Name
  {6ddd3152-d528-4503-a159-be049954fbea}, !- Surface Name
  ,                                       !- Outside Boundary Condition Object
  ,                                       !- View Factor to Ground
  ,                                       !- Shading Control Name
  ,                                       !- Frame and Divider Name
  1,                                      !- Multiplier
  ,                                       !- Number of Vertices
  0, 8.95, 2.5157,                        !- X,Y,Z Vertex 1 {m}
  0, 8.95, 1.1,                           !- X,Y,Z Vertex 2 {m}
  0, 0.05, 1.1,                           !- X,Y,Z Vertex 3 {m}
  0, 0.05, 2.5157;                        !- X,Y,Z Vertex 4 {m}

OS:Surface,
  {6ddd3152-d528-4503-a159-be049954fbea}, !- Handle
  Corner_Class_1_Pod_3_ZN_1_FLR_1_Wall_4, !- Name
  Wall,                                   !- Surface Type
  ,                                       !- Construction Name
  {52c845d0-288b-41eb-87ef-86adf82b6688}, !- Space Name
  Outdoors,                               !- Outside Boundary Condition
  ,                                       !- Outside Boundary Condition Object
  SunExposed,                             !- Sun Exposure
  WindExposed,                            !- Wind Exposure
  ,                                       !- View Factor to Ground
  ,                                       !- Number of Vertices
  0, 9, 4,                                !- X,Y,Z Vertex 1 {m}
  0, 9, 0,                                !- X,Y,Z Vertex 2 {m}
  0, 0, 0,                                !- X,Y,Z Vertex 3 {m}
  0, 0, 4;                                !- X,Y,Z Vertex 4 {m}

OS:Connection,
  {eed9d803-8d34-4f01-a2c9-a9e7a30e4727}, !- Handle
  {adb95844-8f61-4086-a49d-a66af7d0da23}, !- Name
  ,                                       !- Source Object
  11,                                     !- Outlet Port
  ,                                       !- Target Object
  2;                                      !- Inlet Port

OS:Space,
  {52c845d0-288b-41eb-87ef-86adf82b6688}, !- Handle
  Corner_Class_1_Pod_3_ZN_1_FLR_1,        !- Name
  {a73902dd-4a4d-4cca-8d54-784899004d34}, !- Space Type Name
  ,                                       !- Default Construction Set Name
  ,                                       !- Default Schedule Set Name
  0,                                      !- Direction of Relative North {deg}
  -64,                                    !- X Origin {m}
  61,                                     !- Y Origin {m}
  0,                                      !- Z Origin {m}
  ,                                       !- Building Story Name
  {d90df3e5-ef57-46c8-b617-95bc8dd3d407}, !- Thermal Zone Name
  Yes,                                    !- Part of Total Floor Area
  ;                                       !- Design Specification Outdoor Air Object Name

OS:Connection,
  {9d5533b7-9148-4983-b708-e68acf97a4ad}, !- Handle
  {120dda7c-0b88-4270-b3bd-77738810ea93}, !- Name
  ,                                       !- Source Object
  11,                                     !- Outlet Port
  ,                                       !- Target Object
  2;                                      !- Inlet Port

OS:Space,
  {a46fb877-96b3-40c7-ab5c-8b187f529f93}, !- Handle
  Lobby_ZN_1_FLR_1,                       !- Name
  {00b700ea-2a78-475b-93de-9cb5b5a18c8e}, !- Space Type Name
  ,                                       !- Default Construction Set Name
  ,                                       !- Default Schedule Set Name
  0,                                      !- Direction of Relative North {deg}
  0,                                      !- X Origin {m}
  0,                                      !- Y Origin {m}
  0,                                      !- Z Origin {m}
  ,                                       !- Building Story Name
  {4a70818c-fcf7-4739-970d-7597c6bfbae9}, !- Thermal Zone Name
  Yes,                                    !- Part of Total Floor Area
  ;                                       !- Design Specification Outdoor Air Object Name

OS:Surface,
  {c6d318e7-fc60-4b98-b4ce-0ca9004182e8}, !- Handle
  Mult_Class_1_Pod_2_ZN_1_FLR_1_Wall_4,   !- Name
  Wall,                                   !- Surface Type
  ,                                       !- Construction Name
  {1dd65f10-54cf-488b-8392-1bd74048d1a3}, !- Space Name
  Surface,                                !- Outside Boundary Condition
  {03f186b1-e0e2-4786-98da-e68c8afa1129}, !- Outside Boundary Condition Object
  NoSun,                                  !- Sun Exposure
  NoWind,                                 !- Wind Exposure
  ,                                       !- View Factor to Ground
  ,                                       !- Number of Vertices
  0, 9, 4,                                !- X,Y,Z Vertex 1 {m}
  0, 9, 0,                                !- X,Y,Z Vertex 2 {m}
  0, 0, 0,                                !- X,Y,Z Vertex 3 {m}
  0, 0, 4;                                !- X,Y,Z Vertex 4 {m}

OS:Surface,
  {96a93b93-5596-4508-9cbc-29c7f2050126}, !- Handle
  Library_Media_Center_ZN_1_FLR_1_Floor,  !- Name
  Floor,                                  !- Surface Type
  ,                                       !- Construction Name
  {076fb881-a19b-4129-b898-6d6377a8232c}, !- Space Name
  Ground,                                 !- Outside Boundary Condition
  ,                                       !- Outside Boundary Condition Object
  NoSun,                                  !- Sun Exposure
  NoWind,                                 !- Wind Exposure
  ,                                       !- View Factor to Ground
  ,                                       !- Number of Vertices
  19, 21, 0,                              !- X,Y,Z Vertex 1 {m}
  19, 0, 0,                               !- X,Y,Z Vertex 2 {m}
  0, 0, 0,                                !- X,Y,Z Vertex 3 {m}
  0, 21, 0;                               !- X,Y,Z Vertex 4 {m}

OS:Connection,
  {5edd4dbf-b402-4264-89eb-8dac45fd1402}, !- Handle
  {8f967526-3cc6-4834-b3a7-ea524c2e9634}, !- Name
  ,                                       !- Source Object
  11,                                     !- Outlet Port
  ,                                       !- Target Object
  2;                                      !- Inlet Port

OS:Space,
  {076fb881-a19b-4129-b898-6d6377a8232c}, !- Handle
  Library_Media_Center_ZN_1_FLR_1,        !- Name
  {a73902dd-4a4d-4cca-8d54-784899004d34}, !- Space Type Name
  ,                                       !- Default Construction Set Name
  ,                                       !- Default Schedule Set Name
  0,                                      !- Direction of Relative North {deg}
  0,                                      !- X Origin {m}
  61,                                     !- Y Origin {m}
  0,                                      !- Z Origin {m}
  ,                                       !- Building Story Name
  {68b125cc-f816-4fcb-ae42-48c1777897ad}, !- Thermal Zone Name
  Yes,                                    !- Part of Total Floor Area
  ;                                       !- Design Specification Outdoor Air Object Name

OS:ShadowCalculation,
  {949a8abc-0b39-4f9c-925e-5fc6ada93319}, !- Handle
  15000,                                  !- Calculation Frequency
  15000;                                  !- Maximum Figures in Shadow Overlap Calculations

OS:Connection,
  {26b65190-b8d3-4adb-8244-56f23e5d49d4}, !- Handle
  {691e1180-ecd7-4f2b-9ad9-6aaf72405cc8}, !- Name
  ,                                       !- Source Object
  11,                                     !- Outlet Port
  ,                                       !- Target Object
  2;                                      !- Inlet Port

OS:Space,
  {a6bd9b24-b446-4b7c-9675-b8ff3ef4a3b8}, !- Handle
  Mult_Class_2_Pod_3_ZN_1_FLR_1,          !- Name
  {a73902dd-4a4d-4cca-8d54-784899004d34}, !- Space Type Name
  ,                                       !- Default Construction Set Name
  ,                                       !- Default Schedule Set Name
  0,                                      !- Direction of Relative North {deg}
  -53,                                    !- X Origin {m}
  73,                                     !- Y Origin {m}
  0,                                      !- Z Origin {m}
  ,                                       !- Building Story Name
  {2107229c-719f-4f3e-85e4-0093ced98154}, !- Thermal Zone Name
  Yes,                                    !- Part of Total Floor Area
  ;                                       !- Design Specification Outdoor Air Object Name

OS:Surface,
  {de8872f6-be65-4b6f-8375-68ce2a7d4cd9}, !- Handle
  Computer_Class_ZN_1_FLR_1_Wall_3,       !- Name
  Wall,                                   !- Surface Type
  ,                                       !- Construction Name