
OS:Version,
  {a6e3ade0-847b-4bbd-b2c2-ce3c0fb689dc}, !- Handle
  1.5.0;                                  !- Version Identifier

OS:Schedule:Ruleset,
  {9b5e502f-5616-4b86-b5cf-c83c485466fd}, !- Handle
  Always_On,                              !- Name
  {d1b01562-add7-4b74-8b3a-1a336e386f45}, !- Schedule Type Limits Name
  {ee694ae5-1cec-4d96-bd4e-1cc9efa97f24}, !- Default Day Schedule Name
  {7b38ab40-a39a-49bb-a2b9-238a6b0956e7}, !- Summer Design Day Schedule Name
  {fd70c759-aa63-465f-848c-4067bf44e9bf}; !- Winter Design Day Schedule Name

OS:Schedule:Day,
  {ee694ae5-1cec-4d96-bd4e-1cc9efa97f24}, !- Handle
  Always_On_Default,                      !- Name
  {d1b01562-add7-4b74-8b3a-1a336e386f45}, !- Schedule Type Limits Name
  ,                                       !- Interpolate to Timestep
  24,                                     !- Hour 1
  0,                                      !- Minute 1
  1;                                      !- Value Until Time 1

OS:Schedule:Day,
  {fd70c759-aa63-465f-848c-4067bf44e9bf}, !- Handle
  Always_On_Winter_Design_Day,            !- Name
  {d1b01562-add7-4b74-8b3a-1a336e386f45}, !- Schedule Type Limits Name
  ,                                       !- Interpolate to Timestep
  24,                                     !- Hour 1
  0,                                      !- Minute 1
  1;                                      !- Value Until Time 1

OS:Schedule:Day,
  {7b38ab40-a39a-49bb-a2b9-238a6b0956e7}, !- Handle
  Always_On_Summer_Design_Day,            !- Name
  {d1b01562-add7-4b74-8b3a-1a336e386f45}, !- Schedule Type Limits Name
  ,                                       !- Interpolate to Timestep
  24,                                     !- Hour 1
  0,                                      !- Minute 1
  1;                                      !- Value Until Time 1

OS:Construction,
  {e5c57d1c-fea6-4bb7-8067-98663cf60b62}, !- Handle
  INT-FLOOR-TOPSIDE,                      !- Name
  ,                                       !- Surface Rendering Name
  {d1a36087-c5c9-4fab-ad70-b3f07cb72a58}, !- Layer 1
  {11fe8c30-bc62-4e11-bac7-5e8e8fed57af}, !- Layer 2
  {42955776-d5b7-4ecc-8fcf-75532cf0ed6a}; !- Layer 3

OS:Material,
  {d1a36087-c5c9-4fab-ad70-b3f07cb72a58}, !- Handle
  1/2IN Gypsum,                           !- Name
  Smooth,                                 !- Roughness
  0.0127,                                 !- Thickness {m}
  0.1600,                                 !- Conductivity {W/m-K}
  784.9000,                               !- Density {kg/m3}
  830.0000,                               !- Specific Heat {J/kg-K}
  0.9000,                                 !- Thermal Absorptance
  0.9200,                                 !- Solar Absorptance
  0.9200;                                 !- Visible Absorptance

OS:Material,
  {11fe8c30-bc62-4e11-bac7-5e8e8fed57af}, !- Handle
  4IN CONCRETE HW,                        !- Name
  Rough,                                  !- Roughness
  0.1016,                                 !- Thickness {m}
  1.3110,                                 !- Conductivity {W/m-K}
  2240.0000,                              !- Density {kg/m3}
  836.8000,                               !- Specific Heat {J/kg-K}
  0.9000,                                 !- Thermal Absorptance
  0.7000,                                 !- Solar Absorptance
  0.7000;                                 !- Visible Absorptance

OS:Material:NoMass,
  {42955776-d5b7-4ecc-8fcf-75532cf0ed6a}, !- Handle
  CP02 CARPET PAD,                        !- Name
  VeryRough,                              !- Roughness
  0.2165,                                 !- Thermal Resistance {m2-K/W}
  0.9000,                                 !- Thermal Absorptance
  0.7000,                                 !- Solar Absorptance
  0.8000;                                 !- Visible Absorptance

OS:StandardsInformation:Construction,
  {d50750e3-cc35-438f-b554-ee5ade764873}, !- Handle
  {e5c57d1c-fea6-4bb7-8067-98663cf60b62}, ! Construction Name
  ,                                       ! Intended Surface Type
  Mass,                                   ! Construction Type
  0,                                      ! Perturbable Layer
  Insulation,                             ! Perturbable Layer Type
  ;                                       ! Other Perturbable Layer Type

OS:Construction,
  {00fef969-9f09-4dbf-b10c-0b37074ae695}, !- Handle
  INT-FLOOR-UNDERSIDE,                    !- Name
  ,                                       !- Surface Rendering Name
  {42955776-d5b7-4ecc-8fcf-75532cf0ed6a}, !- Layer 1
  {11fe8c30-bc62-4e11-bac7-5e8e8fed57af}, !- Layer 2
  {d1a36087-c5c9-4fab-ad70-b3f07cb72a58}; !- Layer 3

OS:StandardsInformation:Construction,
  {07139683-ba8f-499d-ada3-481a0c736d60}, !- Handle
  {00fef969-9f09-4dbf-b10c-0b37074ae695}, ! Construction Name
  ,                                       ! Intended Surface Type
  Mass,                                   ! Construction Type
  1,                                      ! Perturbable Layer
  Insulation,                             ! Perturbable Layer Type
  ;                                       ! Other Perturbable Layer Type

OS:Construction,
  {fbc24294-765a-45b4-8cf0-c401f6b1a3bf}, !- Handle
  Standard_Int-Wall,                      !- Name
  ,                                       !- Surface Rendering Name
  {d1a36087-c5c9-4fab-ad70-b3f07cb72a58}, !- Layer 1
  {d1a36087-c5c9-4fab-ad70-b3f07cb72a58}; !- Layer 2

OS:StandardsInformation:Construction,
  {b97e41fb-e7c0-45db-b1e4-58463c309e2e}, !- Handle
  {fbc24294-765a-45b4-8cf0-c401f6b1a3bf}, ! Construction Name
  ,                                       ! Intended Surface Type
  Mass,                                   ! Construction Type
  0,                                      ! Perturbable Layer
  Insulation,                             ! Perturbable Layer Type
  ;                                       ! Other Perturbable Layer Type

OS:DefaultSurfaceConstructions,
  {0173bf6a-2e24-4358-9bdb-a25bc8260928}, !- Handle
  Default Surface Constructions 1,        !- Name
  {e5c57d1c-fea6-4bb7-8067-98663cf60b62}, !- Floor Construction Name
  {fbc24294-765a-45b4-8cf0-c401f6b1a3bf}, !- Wall Construction Name
  {00fef969-9f09-4dbf-b10c-0b37074ae695}; !- Roof Ceiling Construction Name

OS:DefaultConstructionSet,
  {d1ab5dc5-328b-494c-a273-26671d82eb8f}, !- Handle
  Default Construction Set 1,             !- Name
  ,                                       !- Default Exterior Surface Constructions Name
  {0173bf6a-2e24-4358-9bdb-a25bc8260928}, !- Default Interior Surface Constructions Name
  ,                                       !- Default Ground Contact Surface Constructions Name
  ,                                       !- Default Exterior SubSurface Constructions Name
  ,                                       !- Default Interior SubSurface Constructions Name
  ,                                       !- Interior Partition Construction Name
  ,                                       !- Space Shading Construction Name
  ,                                       !- Building Shading Construction Name
  ;                                       !- Site Shading Construction Name

OS:Building,
  {890719c3-30d8-4552-a553-a99f5176bc37}, !- Handle
  Toplighting Test Case 2,                !- Name
  ,                                       !- Building Sector Type
  ,                                       !- North Axis {deg}
  ,                                       !- Nominal Floor to Floor Height {m}
  ,                                       !- Space Type Name
  {d1ab5dc5-328b-494c-a273-26671d82eb8f}, !- Default Construction Set Name
  ;                                       !- Default Schedule Set Name

OS:Schedule:Ruleset,
  {3ad96096-a627-4650-bfc0-2da5c82e11a8}, !- Handle
  PNNL_Asset_Rating_Retail_Hvac_Schedule, !- Name
  {d1b01562-add7-4b74-8b3a-1a336e386f45}, !- Schedule Type Limits Name
  {569a5166-99b0-4d0f-9fc4-0b2a5bb6b627}, !- Default Day Schedule Name
  {a72b8710-1956-4088-b591-213e7827ff52}, !- Summer Design Day Schedule Name
  {4086c034-d751-4f99-8ee9-3d1c168831b7}; !- Winter Design Day Schedule Name

OS:Schedule:Day,
  {569a5166-99b0-4d0f-9fc4-0b2a5bb6b627}, !- Handle
  PNNL_Asset_Rating_Retail_Hvac_Schedule_Week_Day, !- Name
  {d1b01562-add7-4b74-8b3a-1a336e386f45}, !- Schedule Type Limits Name
  ,                                       !- Interpolate to Timestep
  1,                                      !- Hour 1
  0,                                      !- Minute 1
  0,                                      !- Value Until Time 1
  2,                                      !- Hour 2
  0,                                      !- Minute 2
  0,                                      !- Value Until Time 2
  3,                                      !- Hour 3
  0,                                      !- Minute 3
  0,                                      !- Value Until Time 3
  4,                                      !- Hour 4
  0,                                      !- Minute 4
  0,                                      !- Value Until Time 4
  5,                                      !- Hour 5
  0,                                      !- Minute 5
  0,                                      !- Value Until Time 5
  6,                                      !- Hour 6
  0,                                      !- Minute 6
  0,                                      !- Value Until Time 6
  7,                                      !- Hour 7
  0,                                      !- Minute 7
  1,                                      !- Value Until Time 7
  8,                                      !- Hour 8
  0,                                      !- Minute 8
  1,                                      !- Value Until Time 8
  9,                                      !- Hour 9
  0,                                      !- Minute 9
  1,                                      !- Value Until Time 9
  10,                                     !- Hour 10
  0,                                      !- Minute 10
  1,                                      !- Value Until Time 10
  11,                                     !- Hour 11
  0,                                      !- Minute 11
  1,                                      !- Value Until Time 11
  12,                                     !- Hour 12
  0,                                      !- Minute 12
  1,                                      !- Value Until Time 12
  13,                                     !- Hour 13
  0,                                      !- Minute 13
  1,                                      !- Value Until Time 13
  14,                                     !- Hour 14
  0,                                      !- Minute 14
  1,                                      !- Value Until Time 14
  15,                                     !- Hour 15
  0,                                      !- Minute 15
  1,                                      !- Value Until Time 15
  16,                                     !- Hour 16
  0,                                      !- Minute 16
  1,                                      !- Value Until Time 16
  17,                                     !- Hour 17
  0,                                      !- Minute 17
  1,                                      !- Value Until Time 17
  18,                                     !- Hour 18
  0,                                      !- Minute 18
  1,                                      !- Value Until Time 18
  19,                                     !- Hour 19
  0,                                      !- Minute 19
  1,                                      !- Value Until Time 19
  20,                                     !- Hour 20
  0,                                      !- Minute 20
  1,                                      !- Value Until Time 20
  21,                                     !- Hour 21
  0,                                      !- Minute 21
  1,                                      !- Value Until Time 21
  22,                                     !- Hour 22
  0,                                      !- Minute 22
  0,                                      !- Value Until Time 22
  23,                                     !- Hour 23
  0,                                      !- Minute 23
  0,                                      !- Value Until Time 23
  24,                                     !- Hour 24
  0,                                      !- Minute 24
  0;                                      !- Value Until Time 24

OS:Schedule:Day,
  {a72b8710-1956-4088-b591-213e7827ff52}, !- Handle
  PNNL_Asset_Rating_Retail_Hvac_Schedule_Summer_Design_Day, !- Name
  {d1b01562-add7-4b74-8b3a-1a336e386f45}, !- Schedule Type Limits Name
  ,                                       !- Interpolate to Timestep
  1,                                      !- Hour 1
  0,                                      !- Minute 1
  0,                                      !- Value Until Time 1
  2,                                      !- Hour 2
  0,                                      !- Minute 2
  0,                                      !- Value Until Time 2
  3,                                      !- Hour 3
  0,                                      !- Minute 3
  0,                                      !- Value Until Time 3
  4,                                      !- Hour 4
  0,                                      !- Minute 4
  0,                                      !- Value Until Time 4
  5,                                      !- Hour 5
  0,                                      !- Minute 5
  0,                                      !- Value Until Time 5
  6,                                      !- Hour 6
  0,                                      !- Minute 6
  0,                                      !- Value Until Time 6
  7,                                      !- Hour 7
  0,                                      !- Minute 7
  1,                                      !- Value Until Time 7
  8,                                      !- Hour 8
  0,                                      !- Minute 8
  1,                                      !- Value Until Time 8
  9,                                      !- Hour 9
  0,                                      !- Minute 9
  1,                                      !- Value Until Time 9
  10,                                     !- Hour 10
  0,                                      !- Minute 10
  1,                                      !- Value Until Time 10
  11,                                     !- Hour 11
  0,                                      !- Minute 11
  1,                                      !- Value Until Time 11
  12,                                     !- Hour 12
  0,                                      !- Minute 12
  1,                                      !- Value Until Time 12
  13,                                     !- Hour 13
  0,                                      !- Minute 13
  1,                                      !- Value Until Time 13
  14,                                     !- Hour 14
  0,                                      !- Minute 14
  1,                                      !- Value Until Time 14
  15,                                     !- Hour 15
  0,                                      !- Minute 15
  1,                                      !- Value Until Time 15
  16,                                     !- Hour 16
  0,                                      !- Minute 16
  1,                                      !- Value Until Time 16
  17,                                     !- Hour 17
  0,                                      !- Minute 17
  1,                                      !- Value Until Time 17
  18,                                     !- Hour 18
  0,                                      !- Minute 18
  1,                                      !- Value Until Time 18
  19,                                     !- Hour 19
  0,                                      !- Minute 19
  1,                                      !- Value Until Time 19
  20,                                     !- Hour 20
  0,                                      !- Minute 20
  1,                                      !- Value Until Time 20
  21,                                     !- Hour 21
  0,                                      !- Minute 21
  1,                                      !- Value Until Time 21
  22,                                     !- Hour 22
  0,                                      !- Minute 22
  0,                                      !- Value Until Time 22
  23,                                     !- Hour 23
  0,                                      !- Minute 23
  0,                                      !- Value Until Time 23
  24,                                     !- Hour 24
  0,                                      !- Minute 24
  0;                                      !- Value Until Time 24

OS:Schedule:Day,
  {4086c034-d751-4f99-8ee9-3d1c168831b7}, !- Handle
  PNNL_Asset_Rating_Retail_Hvac_Schedule_Winter_Design_Day, !- Name
  {d1b01562-add7-4b74-8b3a-1a336e386f45}, !- Schedule Type Limits Name
  ,                                       !- Interpolate to Timestep
  1,                                      !- Hour 1
  0,                                      !- Minute 1
  0,                                      !- Value Until Time 1
  2,                                      !- Hour 2
  0,                                      !- Minute 2
  0,                                      !- Value Until Time 2
  3,                                      !- Hour 3
  0,                                      !- Minute 3
  0,                                      !- Value Until Time 3
  4,                                      !- Hour 4
  0,                                      !- Minute 4
  0,                                      !- Value Until Time 4
  5,                                      !- Hour 5
  0,                                      !- Minute 5
  0,                                      !- Value Until Time 5
  6,                                      !- Hour 6
  0,                                      !- Minute 6
  0,                                      !- Value Until Time 6
  7,                                      !- Hour 7
  0,                                      !- Minute 7
  1,                                      !- Value Until Time 7
  8,                                      !- Hour 8
  0,                                      !- Minute 8
  1,                                      !- Value Until Time 8
  9,                                      !- Hour 9
  0,                                      !- Minute 9
  1,                                      !- Value Until Time 9
  10,                                     !- Hour 10
  0,                                      !- Minute 10
  1,                                      !- Value Until Time 10
  11,                                     !- Hour 11
  0,                                      !- Minute 11
  1,                                      !- Value Until Time 11
  12,                                     !- Hour 12
  0,                                      !- Minute 12
  1,                                      !- Value Until Time 12
  13,                                     !- Hour 13
  0,                                      !- Minute 13
  1,                                      !- Value Until Time 13
  14,                                     !- Hour 14
  0,                                      !- Minute 14
  1,                                      !- Value Until Time 14
  15,                                     !- Hour 15
  0,                                      !- Minute 15
  1,                                      !- Value Until Time 15
  16,                                     !- Hour 16
  0,                                      !- Minute 16
  1,                                      !- Value Until Time 16
  17,                                     !- Hour 17
  0,                                      !- Minute 17
  1,                                      !- Value Until Time 17
  18,                                     !- Hour 18
  0,                                      !- Minute 18
  1,                                      !- Value Until Time 18
  19,                                     !- Hour 19
  0,                                      !- Minute 19
  1,                                      !- Value Until Time 19
  20,                                     !- Hour 20
  0,                                      !- Minute 20
  1,                                      !- Value Until Time 20
  21,                                     !- Hour 21
  0,                                      !- Minute 21
  1,                                      !- Value Until Time 21
  22,                                     !- Hour 22
  0,                                      !- Minute 22
  1,                                      !- Value Until Time 22
  23,                                     !- Hour 23
  0,                                      !- Minute 23
  0,                                      !- Value Until Time 23
  24,                                     !- Hour 24
  0,                                      !- Minute 24
  0;                                      !- Value Until Time 24

OS:Schedule:Rule,
  {272cc9af-1b12-401d-8aee-46693a35da0e}, !- Handle
  PNNL_Asset_Rating_Retail_Hvac_Schedule_Sunday_Rule, !- Name
  {3ad96096-a627-4650-bfc0-2da5c82e11a8}, !- Schedule Ruleset Name
  0,                                      !- Rule Order
  {c31fc2d8-dc56-4b6c-8705-a4b67724faaa}, !- Day Schedule Name
  Yes;                                    !- Apply Sunday

OS:Schedule:Day,
  {c31fc2d8-dc56-4b6c-8705-a4b67724faaa}, !- Handle
  PNNL_Asset_Rating_Retail_Hvac_Schedule_Sunday, !- Name
  {d1b01562-add7-4b74-8b3a-1a336e386f45}, !- Schedule Type Limits Name
  ,                                       !- Interpolate to Timestep
  1,                                      !- Hour 1
  0,                                      !- Minute 1
  0,                                      !- Value Until Time 1
  2,                                      !- Hour 2
  0,                                      !- Minute 2
  0,                                      !- Value Until Time 2
  3,                                      !- Hour 3
  0,                                      !- Minute 3
  0,                                      !- Value Until Time 3
  4,                                      !- Hour 4
  0,                                      !- Minute 4
  0,                                      !- Value Until Time 4
  5,                                      !- Hour 5
  0,                                      !- Minute 5
  0,                                      !- Value Until Time 5
  6,                                      !- Hour 6
  0,                                      !- Minute 6
  0,                                      !- Value Until Time 6
  7,                                      !- Hour 7
  0,                                      !- Minute 7
  1,                                      !- Value Until Time 7
  8,                                      !- Hour 8
  0,                                      !- Minute 8
  1,                                      !- Value Until Time 8
  9,                                      !- Hour 9
  0,                                      !- Minute 9
  1,                                      !- Value Until Time 9
  10,                                     !- Hour 10
  0,                                      !- Minute 10
  1,                                      !- Value Until Time 10
  11,                                     !- Hour 11
  0,                                      !- Minute 11
  1,                                      !- Value Until Time 11
  12,                                     !- Hour 12
  0,                                      !- Minute 12
  1,                                      !- Value Until Time 12
  13,                                     !- Hour 13
  0,                                      !- Minute 13
  1,                                      !- Value Until Time 13
  14,                                     !- Hour 14
  0,                                      !- Minute 14
  1,                                      !- Value Until Time 14
  15,                                     !- Hour 15
  0,                                      !- Minute 15
  1,                                      !- Value Until Time 15
  16,                                     !- Hour 16
  0,                                      !- Minute 16
  1,                                      !- Value Until Time 16
  17,                                     !- Hour 17
  0,                                      !- Minute 17
  1,                                      !- Value Until Time 17
  18,                                     !- Hour 18
  0,                                      !- Minute 18
  1,                                      !- Value Until Time 18
  19,                                     !- Hour 19
  0,                                      !- Minute 19
  1,                                      !- Value Until Time 19
  20,                                     !- Hour 20
  0,                                      !- Minute 20
  0,                                      !- Value Until Time 20
  21,                                     !- Hour 21
  0,                                      !- Minute 21
  0,                                      !- Value Until Time 21
  22,                                     !- Hour 22
  0,                                      !- Minute 22
  0,                                      !- Value Until Time 22
  23,                                     !- Hour 23
  0,                                      !- Minute 23
  0,                                      !- Value Until Time 23
  24,                                     !- Hour 24
  0,                                      !- Minute 24
  0;                                      !- Value Until Time 24

OS:Schedule:Rule,
  {b64c2534-f29a-4293-a08d-6ab81794db60}, !- Handle
  PNNL_Asset_Rating_Retail_Hvac_Schedule_Saturday_Rule, !- Name
  {3ad96096-a627-4650-bfc0-2da5c82e11a8}, !- Schedule Ruleset Name
  1,                                      !- Rule Order
  {819bc1f8-dbd6-4c26-af12-320df257e194}, !- Day Schedule Name
  ,                                       !- Apply Sunday
  ,                                       !- Apply Monday
  ,                                       !- Apply Tuesday
  ,                                       !- Apply Wednesday
  ,                                       !- Apply Thursday
  ,                                       !- Apply Friday
  Yes;                                    !- Apply Saturday

OS:Schedule:Day,
  {819bc1f8-dbd6-4c26-af12-320df257e194}, !- Handle
  PNNL_Asset_Rating_Retail_Hvac_Schedule_Saturday, !- Name
  {d1b01562-add7-4b74-8b3a-1a336e386f45}, !- Schedule Type Limits Name
  ,                                       !- Interpolate to Timestep
  1,                                      !- Hour 1
  0,                                      !- Minute 1
  0,                                      !- Value Until Time 1
  2,                                      !- Hour 2
  0,                                      !- Minute 2
  0,                                      !- Value Until Time 2
  3,                                      !- Hour 3
  0,                                      !- Minute 3
  0,                                      !- Value Until Time 3
  4,                                      !- Hour 4
  0,                                      !- Minute 4
  0,                                      !- Value Until Time 4
  5,                                      !- Hour 5
  0,                                      !- Minute 5
  0,                                      !- Value Until Time 5
  6,                                      !- Hour 6
  0,                                      !- Minute 6
  0,                                      !- Value Until Time 6
  7,                                      !- Hour 7
  0,                                      !- Minute 7
  1,                                      !- Value Until Time 7
  8,                                      !- Hour 8
  0,                                      !- Minute 8
  1,                                      !- Value Until Time 8
  9,                                      !- Hour 9
  0,                                      !- Minute 9
  1,                                      !- Value Until Time 9
  10,                                     !- Hour 10
  0,                                      !- Minute 10
  1,                                      !- Value Until Time 10
  11,                                     !- Hour 11
  0,                                      !- Minute 11
  1,                                      !- Value Until Time 11
  12,                                     !- Hour 12
  0,                                      !- Minute 12
  1,                                      !- Value Until Time 12
  13,                                     !- Hour 13
  0,                                      !- Minute 13
  1,                                      !- Value Until Time 13
  14,                                     !- Hour 14
  0,                                      !- Minute 14
  1,                                      !- Value Until Time 14
  15,                                     !- Hour 15
  0,                                      !- Minute 15
  1,                                      !- Value Until Time 15
  16,                                     !- Hour 16
  0,                                      !- Minute 16
  1,                                      !- Value Until Time 16
  17,                                     !- Hour 17
  0,                                      !- Minute 17