
OS:Version,
  {3bbf9374-0e8f-4d19-ab19-7d980667299c}, !- Handle
  1.9.3;                                  !- Version Identifier

OS:Site,
  {0f47c310-aa5a-40d4-85d5-78f02ad3b06b}, !- Handle
  Chicago Ohare Intl Ap_IL_USA,           !- Name
  41.98,                                  !- Latitude {deg}
  -87.92,                                 !- Longitude {deg}
  -6,                                     !- Time Zone {hr}
  201,                                    !- Elevation {m}
  Suburbs;                                !- Terrain

OS:SimulationControl,
  {fbdee9b0-fbb2-42f4-b2cc-e3dff6037115}, !- Handle
  Yes,                                    !- Do Zone Sizing Calculation
  Yes,                                    !- Do System Sizing Calculation
  Yes,                                    !- Do Plant Sizing Calculation
  No,                                     !- Run Simulation for Sizing Periods
  Yes,                                    !- Run Simulation for Weather File Run Periods
  0.04,                                   !- Loads Convergence Tolerance Value
  0.4,                                    !- Temperature Convergence Tolerance Value {deltaC}
  FullExterior,                           !- Solar Distribution
  25,                                     !- Maximum Number of Warmup Days
  6;                                      !- Minimum Number of Warmup Days

OS:Connection,
  {2f4a6a5f-b177-49d1-8a98-d3e3b60fb8cf}, !- Handle
  {d838dab5-438d-4e2b-8014-3333a33db843}, !- Name
  ,                                       !- Source Object
  11,                                     !- Outlet Port
  ,                                       !- Target Object
  2;                                      !- Inlet Port

OS:Space,
  {d1b7c1c3-e831-4ee2-a3a3-08e8f756705a}, !- Handle
  GuestRoom409_412,                       !- Name
  {5c3cd610-7d79-4477-8b31-22706a67e4e9}, !- Space Type Name
  ,                                       !- Default Construction Set Name
  ,                                       !- Default Schedule Set Name
  0,                                      !- Direction of Relative North {deg}
  0,                                      !- X Origin {m}
  0,                                      !- Y Origin {m}
  0,                                      !- Z Origin {m}
  ,                                       !- Building Story Name
  {8e158d3d-9bb0-4fc8-9e84-fe8aa0f83a56}; !- Thermal Zone Name

OS:Surface,
  {78d3ba66-87a2-4f99-9649-3c06386fc345}, !- Handle
  R_GuestRoom413_1_0_0,                   !- Name
  RoofCeiling,                            !- Surface Type
  ,                                       !- Construction Name
  {e62fa6be-6441-455c-8319-088101603fea}, !- Space Name
  Outdoors,                               !- Outside Boundary Condition
  ,                                       !- Outside Boundary Condition Object
  SunExposed,                             !- Sun Exposure
  WindExposed,                            !- Wind Exposure
  ,                                       !- View Factor to Ground
  ,                                       !- Number of Vertices
  52.4742844242, 0.0488452197, 11.5824,   !- X,Y,Z Vertex 1 {m}
  52.4742844242, 8.2790292198, 11.5824,   !- X,Y,Z Vertex 2 {m}
  48.5118844242, 8.2790292198, 11.5824,   !- X,Y,Z Vertex 3 {m}
  48.5118844242, 0.0488452197, 11.5824;   !- X,Y,Z Vertex 4 {m}

OS:Connection,
  {0b618837-d88a-4813-a035-f2b81024de2a}, !- Handle
  {02ce218e-d8ef-4a45-a625-de89c8fa9fad}, !- Name
  ,                                       !- Source Object
  11,                                     !- Outlet Port
  ,                                       !- Target Object
  2;                                      !- Inlet Port

OS:Space,
  {e62fa6be-6441-455c-8319-088101603fea}, !- Handle
  GuestRoom413,                           !- Name
  {3983479a-20b7-47ec-9040-d67c63029d8e}, !- Space Type Name
  ,                                       !- Default Construction Set Name
  ,                                       !- Default Schedule Set Name
  0,                                      !- Direction of Relative North {deg}
  0,                                      !- X Origin {m}
  0,                                      !- Y Origin {m}
  0,                                      !- Z Origin {m}
  ,                                       !- Building Story Name
  {744c2297-6e07-46db-a943-a07df2f9f188}; !- Thermal Zone Name

OS:Connection,
  {f23ec524-b2e9-4db7-b1f9-4f932688fdef}, !- Handle
  {c804cf17-c6b2-4b20-b95c-7e2bb05e00a2}, !- Name
  ,                                       !- Source Object
  11,                                     !- Outlet Port
  ,                                       !- Target Object
  2;                                      !- Inlet Port

OS:Space,
  {7d3cdab0-7833-42f1-8b92-8d47d6343f01}, !- Handle
  GuestRoom314,                           !- Name
  {66a5b0bb-2bc1-45fc-bcbb-1cd0dfeba2f3}, !- Space Type Name
  ,                                       !- Default Construction Set Name
  ,                                       !- Default Schedule Set Name
  0,                                      !- Direction of Relative North {deg}
  0,                                      !- X Origin {m}
  0,                                      !- Y Origin {m}
  0,                                      !- Z Origin {m}
  ,                                       !- Building Story Name
  {0baa23ce-ad4c-4f13-8e73-c817e67576da}; !- Thermal Zone Name

OS:Surface,
  {019befd6-9f6b-4dee-8c21-e9b805c8f77f}, !- Handle
  S_CorridorFlr1_0_0_0,                   !- Name
  Floor,                                  !- Surface Type
  ,                                       !- Construction Name
  {b3c76fbe-cf54-452a-8306-b26275cfa89a}, !- Space Name
  Ground,                                 !- Outside Boundary Condition
  ,                                       !- Outside Boundary Condition Object
  NoSun,                                  !- Sun Exposure
  NoWind,                                 !- Wind Exposure
  ,                                       !- View Factor to Ground
  ,                                       !- Number of Vertices
  26.8710844241, 18.3374292198, 0,        !- X,Y,Z Vertex 1 {m}
  26.8710844241, 10.1078292198, 0,        !- X,Y,Z Vertex 2 {m}
  54.9132684242, 10.1078292198, 0,        !- X,Y,Z Vertex 3 {m}
  54.9132684242, 8.2790292198, 0,         !- X,Y,Z Vertex 4 {m}
  26.8710844241, 8.2790292198, 0,         !- X,Y,Z Vertex 5 {m}
  26.8710844241, 0.0488452197, 0,         !- X,Y,Z Vertex 6 {m}
  23.8230844241, 0.0488452197, 0,         !- X,Y,Z Vertex 7 {m}
  23.8230844241, 8.2790292198, 0,         !- X,Y,Z Vertex 8 {m}
  0.048684424, 8.2790292198, 0,           !- X,Y,Z Vertex 9 {m}
  0.048684424, 10.1078292198, 0,          !- X,Y,Z Vertex 10 {m}
  23.8230844241, 10.1078292198, 0,        !- X,Y,Z Vertex 11 {m}
  23.8230844241, 18.3374292198, 0;        !- X,Y,Z Vertex 12 {m}

OS:Connection,
  {468c17e5-fe58-4ea8-b8be-3f9c93ea63a3}, !- Handle
  {4e649fa7-8e82-4ea2-9f0d-2a2060d8c03b}, !- Name
  ,                                       !- Source Object
  11,                                     !- Outlet Port
  ,                                       !- Target Object
  2;                                      !- Inlet Port

OS:Space,
  {b3c76fbe-cf54-452a-8306-b26275cfa89a}, !- Handle
  CorridorFlr1,                           !- Name
  {9dd6611a-3bb7-405f-b65c-fa94f6223017}, !- Space Type Name
  ,                                       !- Default Construction Set Name
  ,                                       !- Default Schedule Set Name
  0,                                      !- Direction of Relative North {deg}
  0,                                      !- X Origin {m}
  0,                                      !- Y Origin {m}
  0,                                      !- Z Origin {m}
  ,                                       !- Building Story Name
  {f496c653-5ffd-4082-a6eb-204b3eba7664}; !- Thermal Zone Name

OS:Surface,
  {fda67b96-5e33-412b-9518-7d81c266d46a}, !- Handle
  R_GuestRoom401_1_0_0,                   !- Name
  RoofCeiling,                            !- Surface Type
  ,                                       !- Construction Name
  {652a16b5-ce97-4cef-a4e0-6c69d1a085da}, !- Space Name
  Outdoors,                               !- Outside Boundary Condition
  ,                                       !- Outside Boundary Condition Object
  SunExposed,                             !- Sun Exposure
  WindExposed,                            !- Wind Exposure
  ,                                       !- View Factor to Ground
  ,                                       !- Number of Vertices
  4.011084424, 0.0488452197, 11.5824,     !- X,Y,Z Vertex 1 {m}
  4.011084424, 8.2790292198, 11.5824,     !- X,Y,Z Vertex 2 {m}
  0.048684424, 8.2790292198, 11.5824,     !- X,Y,Z Vertex 3 {m}
  0.048684424, 0.0488452197, 11.5824;     !- X,Y,Z Vertex 4 {m}

OS:Connection,
  {2185ba12-78ef-4f28-b678-6bc8a2e5cccd}, !- Handle
  {52bc93ad-da29-483b-9ac2-8782fc6391b8}, !- Name
  ,                                       !- Source Object
  11,                                     !- Outlet Port
  ,                                       !- Target Object
  2;                                      !- Inlet Port

OS:Space,
  {652a16b5-ce97-4cef-a4e0-6c69d1a085da}, !- Handle
  GuestRoom401,                           !- Name
  {5c3cd610-7d79-4477-8b31-22706a67e4e9}, !- Space Type Name
  ,                                       !- Default Construction Set Name
  ,                                       !- Default Schedule Set Name
  0,                                      !- Direction of Relative North {deg}
  0,                                      !- X Origin {m}
  0,                                      !- Y Origin {m}
  0,                                      !- Z Origin {m}
  ,                                       !- Building Story Name
  {ecde3f37-4619-42f2-a4bd-31e31e9fca10}; !- Thermal Zone Name

OS:Surface,
  {3d8af617-2666-452e-b112-1616993666b6}, !- Handle
  P_GuestRoom302_305_10213_0_10120,       !- Name
  Wall,                                   !- Surface Type
  ,                                       !- Construction Name
  {305b4781-d9de-4647-a7c4-81b53319e4f9}, !- Space Name
  Surface,                                !- Outside Boundary Condition
  {5b89affd-2b46-4fcd-813b-02a8d8ac0e51}, !- Outside Boundary Condition Object
  NoSun,                                  !- Sun Exposure
  NoWind,                                 !- Wind Exposure
  ,                                       !- View Factor to Ground
  ,                                       !- Number of Vertices
  19.86068442, 8.2790292198, 8.8392,      !- X,Y,Z Vertex 1 {m}
  19.86068442, 8.2790292198, 6.096,       !- X,Y,Z Vertex 2 {m}
  4.01108442, 8.2790292198, 6.096,        !- X,Y,Z Vertex 3 {m}
  4.01108442, 8.2790292198, 8.8392;       !- X,Y,Z Vertex 4 {m}

OS:Connection,
  {ad5276aa-8b73-40e1-803d-101e525fd475}, !- Handle
  {a170db81-bbfb-4e82-b161-cbb9fa98f661}, !- Name
  ,                                       !- Source Object
  11,                                     !- Outlet Port
  ,                                       !- Target Object
  2;                                      !- Inlet Port

OS:Space,
  {305b4781-d9de-4647-a7c4-81b53319e4f9}, !- Handle
  GuestRoom302_305,                       !- Name
  {55736bf9-e7b8-45c5-90ca-8e2abe14f600}, !- Space Type Name
  ,                                       !- Default Construction Set Name
  ,                                       !- Default Schedule Set Name
  0,                                      !- Direction of Relative North {deg}
  0,                                      !- X Origin {m}
  0,                                      !- Y Origin {m}
  0,                                      !- Z Origin {m}
  ,                                       !- Building Story Name
  {5da16387-be30-4891-aa85-1308e380e8c0}; !- Thermal Zone Name

OS:Connection,
  {b15b16d8-2256-4882-b9ce-5f4c10eeb799}, !- Handle
  {758f7d3e-2983-4744-a457-2b3633c86c13}, !- Name
  ,                                       !- Source Object
  11,                                     !- Outlet Port
  ,                                       !- Target Object
  2;                                      !- Inlet Port

OS:Space,
  {cfa26628-fd54-4236-aa09-483623cb3685}, !- Handle
  RearStairsFlr2,                         !- Name
  {d54192e4-18bb-4ac3-827c-91fbb00aabe8}, !- Space Type Name
  ,                                       !- Default Construction Set Name
  ,                                       !- Default Schedule Set Name
  0,                                      !- Direction of Relative North {deg}
  0,                                      !- X Origin {m}
  0,                                      !- Y Origin {m}
  0,                                      !- Z Origin {m}
  ,                                       !- Building Story Name
  {797779e0-57d0-46ad-a591-6ad7d47f13c4}; !- Thermal Zone Name

OS:SubSurface,
  {d75e0b01-0fb2-41e6-9138-d2f718f912d3}, !- Handle
  W_GuestRoom319_3_0_0_0_0,               !- Name
  FixedWindow,                            !- Sub Surface Type
  ,                                       !- Construction Name
  {90d1f351-2873-43fd-bdb8-c03e4de1bb1f}, !- Surface Name
  ,                                       !- Outside Boundary Condition Object
  ,                                       !- View Factor to Ground
  ,                                       !- Shading Control Name
  ,                                       !- Frame and Divider Name
  1,                                      !- Multiplier
  ,                                       !- Number of Vertices
  31.2506844241, 18.3374292204444, 8.1896, !- X,Y,Z Vertex 1 {m}
  31.2506844241, 18.3374292204444, 6.7456, !- X,Y,Z Vertex 2 {m}
  30.1114844241, 18.3374292204444, 6.7456, !- X,Y,Z Vertex 3 {m}
  30.1114844241, 18.3374292204444, 8.1896; !- X,Y,Z Vertex 4 {m}

OS:Surface,
  {90d1f351-2873-43fd-bdb8-c03e4de1bb1f}, !- Handle
  W_GuestRoom319_3_0_0,                   !- Name
  Wall,                                   !- Surface Type
  ,                                       !- Construction Name
  {bfd03907-7019-4685-a559-9eac57d10b5f}, !- Space Name
  Outdoors,                               !- Outside Boundary Condition
  ,                                       !- Outside Boundary Condition Object
  SunExposed,                             !- Sun Exposure
  WindExposed,                            !- Wind Exposure
  ,                                       !- View Factor to Ground
  ,                                       !- Number of Vertices
  32.6622844241, 18.3374292198, 8.8392,   !- X,Y,Z Vertex 1 {m}
  32.6622844241, 18.3374292198, 6.096,    !- X,Y,Z Vertex 2 {m}
  28.6998844241, 18.3374292198, 6.096,    !- X,Y,Z Vertex 3 {m}
  28.6998844241, 18.3374292198, 8.8392;   !- X,Y,Z Vertex 4 {m}

OS:Connection,
  {de4487de-dff3-47d1-bef8-1aa5dd2d2e23}, !- Handle
  {5ad5f1e4-3c8c-4445-9584-f331587a96d5}, !- Name
  ,                                       !- Source Object
  11,                                     !- Outlet Port
  ,                                       !- Target Object
  2;                                      !- Inlet Port

OS:Space,
  {bfd03907-7019-4685-a559-9eac57d10b5f}, !- Handle
  GuestRoom319,                           !- Name
  {55736bf9-e7b8-45c5-90ca-8e2abe14f600}, !- Space Type Name
  ,                                       !- Default Construction Set Name
  ,                                       !- Default Schedule Set Name
  0,                                      !- Direction of Relative North {deg}
  0,                                      !- X Origin {m}
  0,                                      !- Y Origin {m}
  0,                                      !- Z Origin {m}
  ,                                       !- Building Story Name
  {66516d11-ca73-49ea-ae32-c7671651a790}; !- Thermal Zone Name

OS:Surface,
  {a8b267f0-1842-4651-acca-354a73ad36ec}, !- Handle
  P_GuestRoom214_10099_0_10061,           !- Name
  Wall,                                   !- Surface Type
  ,                                       !- Construction Name
  {1fc3ea07-52cc-4940-9efd-be587e47e905}, !- Space Name
  Surface,                                !- Outside Boundary Condition
  {5b935ba1-60dd-4c4a-a6a7-e48259fce4b3}, !- Outside Boundary Condition Object
  NoSun,                                  !- Sun Exposure
  NoWind,                                 !- Wind Exposure
  ,                                       !- View Factor to Ground
  ,                                       !- Number of Vertices
  52.4742844242, 10.10782922, 6.096,      !- X,Y,Z Vertex 1 {m}
  52.4742844242, 10.10782922, 3.3528,     !- X,Y,Z Vertex 2 {m}
  52.4742844242, 18.33742922, 3.3528,     !- X,Y,Z Vertex 3 {m}
  52.4742844242, 18.33742922, 6.096;      !- X,Y,Z Vertex 4 {m}

OS:Connection,
  {dcbb6a27-244a-4a5d-bef7-07fec094f9f0}, !- Handle
  {64994e7c-5835-4526-b811-31b2ef20ddde}, !- Name
  ,                                       !- Source Object
  11,                                     !- Outlet Port
  ,                                       !- Target Object
  2;                                      !- Inlet Port

OS:Space,
  {1fc3ea07-52cc-4940-9efd-be587e47e905}, !- Handle
  GuestRoom214,                           !- Name
  {66a5b0bb-2bc1-45fc-bcbb-1cd0dfeba2f3}, !- Space Type Name
  ,                                       !- Default Construction Set Name
  ,                                       !- Default Schedule Set Name
  0,                                      !- Direction of Relative North {deg}
  0,                                      !- X Origin {m}
  0,                                      !- Y Origin {m}
  0,                                      !- Z Origin {m}
  ,                                       !- Building Story Name
  {bc3d42c6-c391-4d45-a050-40956a9fa08a}; !- Thermal Zone Name

OS:HeatBalanceAlgorithm,
  {cf83a599-72b0-4300-a242-3930cd584a49}, !- Handle
  ConductionTransferFunction,             !- Algorithm
  200;                                    !- Surface Temperature Upper Limit {C}

OS:SubSurface,
  {938d3ad7-a3bd-432e-b7f6-d9e557208b03}, !- Handle
  W_GuestRoom309_312_5_0_0_0_2,           !- Name
  FixedWindow,                            !- Sub Surface Type
  ,                                       !- Construction Name
  {e70bad90-c67b-4d18-bb3b-53235f212170}, !- Surface Name
  ,                                       !- Outside Boundary Condition Object
  ,                                       !- View Factor to Ground
  ,                                       !- Shading Control Name
  ,                                       !- Frame and Divider Name
  1,                                      !- Multiplier
  ,                                       !- Number of Vertices
  41.9986844242, 0.0488452197, 8.1896,    !- X,Y,Z Vertex 1 {m}
  41.9986844242, 0.0488452197, 6.7456,    !- X,Y,Z Vertex 2 {m}
  43.1378844242, 0.0488452197, 6.7456,    !- X,Y,Z Vertex 3 {m}
  43.1378844242, 0.0488452197, 8.1896;    !- X,Y,Z Vertex 4 {m}

OS:Surface,
  {e70bad90-c67b-4d18-bb3b-53235f212170}, !- Handle
  W_GuestRoom309_312_5_0_0,               !- Name
  Wall,                                   !- Surface Type
  ,                                       !- Construction Name
  {7c74aa7a-22dc-4421-817e-0bde65868fbd}, !- Space Name
  Outdoors,                               !- Outside Boundary Condition
  ,                                       !- Outside Boundary Condition Object
  SunExposed,                             !- Sun Exposure
  WindExposed,                            !- Wind Exposure
  ,                                       !- View Factor to Ground
  ,                                       !- Number of Vertices
  32.6622844241, 0.0488452197, 8.8392,    !- X,Y,Z Vertex 1 {m}
  32.6622844241, 0.0488452197, 6.096,     !- X,Y,Z Vertex 2 {m}
  48.5118844242, 0.0488452197, 6.096,     !- X,Y,Z Vertex 3 {m}
  48.5118844242, 0.0488452197, 8.8392;    !- X,Y,Z Vertex 4 {m}

OS:Connection,
  {1c7dd884-0e53-455c-9d84-57da944baba1}, !- Handle
  {fbd22134-14f3-4e67-b220-5feb3c5ae96b}, !- Name
  ,                                       !- Source Object
  11,                                     !- Outlet Port
  ,                                       !- Target Object
  2;                                      !- Inlet Port

OS:Space,
  {7c74aa7a-22dc-4421-817e-0bde65868fbd}, !- Handle
  GuestRoom309_312,                       !- Name
  {66a5b0bb-2bc1-45fc-bcbb-1cd0dfeba2f3}, !- Space Type Name
  ,                                       !- Default Construction Set Name
  ,                                       !- Default Schedule Set Name
  0,                                      !- Direction of Relative North {deg}
  0,                                      !- X Origin {m}
  0,                                      !- Y Origin {m}
  0,                                      !- Z Origin {m}
  ,                                       !- Building Story Name
  {dcb86f33-6a5e-418b-bb98-c5f95a942f52}; !- Thermal Zone Name

OS:Surface,
  {96cbddc8-7e5b-483e-91e7-8121d5103c7b}, !- Handle
  P_RestroomFlr1_10033_0_10030,           !- Name
  Wall,                                   !- Surface Type
  ,                                       !- Construction Name
  {9ecfb5b0-1d88-4c36-9848-9d86eabaf86c}, !- Space Name
  Surface,                                !- Outside Boundary Condition
  {9042b30e-8adb-4666-a6a5-7c3f8549b0fe}, !- Outside Boundary Condition Object
  NoSun,                                  !- Sun Exposure
  NoWind,                                 !- Wind Exposure
  ,                                       !- View Factor to Ground
  ,                                       !- Number of Vertices
  19.8606844241, 8.27902922, 3.3528,      !- X,Y,Z Vertex 1 {m}
  19.8606844241, 8.27902922, 0,           !- X,Y,Z Vertex 2 {m}
  19.8606844241, 0.04884522, 0,           !- X,Y,Z Vertex 3 {m}
  19.8606844241, 0.04884522, 3.3528;      !- X,Y,Z Vertex 4 {m}

OS:Connection,
  {026735b6-72a0-4f20-8c6a-72355e9b6e94}, !- Handle
  {b1ae1a19-7170-47e8-9558-99ad9170ed8c}, !- Name
  ,                                       !- Source Object
  11,                                     !- Outlet Port
  ,                                       !- Target Object
  2;                                      !- Inlet Port

OS:Space,
  {9ecfb5b0-1d88-4c36-9848-9d86eabaf86c}, !- Handle
  RestroomFlr1,                           !- Name
  {44425ae8-dfce-405d-9fa6-44a684232538}, !- Space Type Name
  ,                                       !- Default Construction Set Name
  ,                                       !- Default Schedule Set Name
  0,                                      !- Direction of Relative North {deg}
  0,                                      !- X Origin {m}
  0,                                      !- Y Origin {m}
  0,                                      !- Z Origin {m}
  ,                                       !- Building Story Name
  {2214c992-6cab-451d-ac5d-65b2d4bec423}; !- Thermal Zone Name

OS:Surface,
  {3ee5b738-9c2b-48aa-a380-806c2dc3722a}, !- Handle
  P_CorridorFlr4_18_0_0,                  !- Name
  Wall,                                   !- Surface Type
  ,                                       !- Construction Name
  {cddbd72c-bf5c-4185-8aac-c80dbbf6099c}, !- Space Name
  Surface,                                !- Outside Boundary Condition
  {57bf387d-a8e2-4bdd-97b1-8b036f1d3ac7}, !- Outside Boundary Condition Object
  NoSun,                                  !- Sun Exposure
  NoWind,                                 !- Wind Exposure
  ,                                       !- View Factor to Ground
  ,                                       !- Number of Vertices
  19.86068442, 8.2790292198, 11.5824,     !- X,Y,Z Vertex 1 {m}
  19.86068442, 8.2790292198, 8.8392,      !- X,Y,Z Vertex 2 {m}
  32.66228442, 8.2790292198, 8.8392,      !- X,Y,Z Vertex 3 {m}
  32.66228442, 8.2790292198, 11.5824;     !- X,Y,Z Vertex 4 {m}

OS:Connection,
  {d68d97e8-6c8d-41ef-be0c-e04d1e4497fc}, !- Handle
  {e8e7ae23-57f1-46ca-8325-0095d6484169}, !- Name
  ,                                       !- Source Object
  11,                                     !- Outlet Port
  ,                                       !- Target Object
  2;                                      !- Inlet Port

OS:Space,
  {cddbd72c-bf5c-4185-8aac-c80dbbf6099c}, !- Handle
  CorridorFlr4,                           !- Name
  {f204cbd2-d790-44ca-ace3-0214a84f8c3b}, !- Space Type Name
  ,                                       !- Default Construction Set Name
  ,                                       !- Default Schedule Set Name
  0,                                      !- Direction of Relative North {deg}
  0,                                      !- X Origin {m}
  0,                                      !- Y Origin {m}
  0,                                      !- Z Origin {m}
  ,                                       !- Building Story Name
  {da780345-b4aa-4bf7-9667-c765ff1619f6}; !- Thermal Zone Name

OS:SubSurface,
  {cce7ee5a-077e-4105-9b3b-8f4df773d529}, !- Handle
  W_GuestRoom214_3_0_0_0_0,               !- Name
  FixedWindow,                            !- Sub Surface Type
  ,                                       !- Construction Name
  {09cd0333-2a94-41ae-886e-572eb07d0e09}, !- Surface Name
  ,                                       !- Outside Boundary Condition Object
  ,                                       !- View Factor to Ground
  ,                                       !- Shading Control Name
  ,                                       !- Frame and Divider Name
  1,                                      !- Multiplier
  ,                                       !- Number of Vertices
  51.0626844242, 18.3374292198, 5.4464,   !- X,Y,Z Vertex 1 {m}
  51.0626844242, 18.3374292198, 4.0024,   !- X,Y,Z Vertex 2 {m}
  49.9234844242, 18.3374292198, 4.0024,   !- X,Y,Z Vertex 3 {m}
  49.9234844242, 18.3374292198, 5.4464;   !- X,Y,Z Vertex 4 {m}

OS:Surface,
  {09cd0333-2a94-41ae-886e-572eb07d0e09}, !- Handle
  W_GuestRoom214_3_0_0,                   !- Name
  Wall,                                   !- Surface Type
  ,                                       !- Construction Name
  {1fc3ea07-52cc-4940-9efd-be587e47e905}, !- Space Name
  Outdoors,                               !- Outside Boundary Condition
  ,                                       !- Outside Boundary Condition Object
  SunExposed,                             !- Sun Exposure
  WindExposed,                            !- Wind Exposure
  ,                                       !- View Factor to Ground
  ,                                       !- Number of Vertices
  52.4742844242, 18.3374292198, 6.096,    !- X,Y,Z Vertex 1 {m}
  52.4742844242, 18.3374292198, 3.3528,   !- X,Y,Z Vertex 2 {m}
  48.5118844242, 18.3374292198, 3.3528,   !- X,Y,Z Vertex 3 {m}
  48.5118844242, 18.3374292198, 6.096;    !- X,Y,Z Vertex 4 {m}

OS:SubSurface,
  {d1290e20-e12b-4846-81d8-12554a5ec67e}, !- Handle
  W_FrontOfficeFlr1_3_0_0_0_2,            !- Name
  FixedWindow,                            !- Sub Surface Type
  ,                                       !- Construction Name
  {289bdfa4-8efb-4211-ab2c-50625fdfef5a}, !- Surface Name
  ,                                       !- Outside Boundary Condition Object
  ,                                       !- View Factor to Ground
  ,                                       !- Shading Control Name
  ,                                       !- Frame and Divider Name
  1,                                      !- Multiplier
  ,                                       !- Number of Vertices
  10.524284424, 18.3374292197494, 2.3984, !- X,Y,Z Vertex 1 {m}
  10.524284424, 18.3374292197494, 0.9544, !- X,Y,Z Vertex 2 {m}
  9.385084424, 18.3374292197494, 0.9544,  !- X,Y,Z Vertex 3 {m}
  9.385084424, 18.3374292197494, 2.3984;  !- X,Y,Z Vertex 4 {m}

OS:Surface,
  {289bdfa4-8efb-4211-ab2c-50625fdfef5a}, !- Handle
  W_FrontOfficeFlr1_3_0_0,                !- Name
  Wall,                                   !- Surface Type
  ,                                       !- Construction Name
  {3368d0f3-080c-428e-a6f7-eb8d5eebd364}, !- Space Name
  Outdoors,                               !- Outside Boundary Condition
  ,                                       !- Outside Boundary Condition Object
  SunExposed,                             !- Sun Exposure
  WindExposed,                            !- Wind Exposure
  ,                                       !- View Factor to Ground
  ,                                       !- Number of Vertices
  19.8606844241, 18.3374292198, 3.3528,   !- X,Y,Z Vertex 1 {m}
  19.8606844241, 18.3374292198, 0,        !- X,Y,Z Vertex 2 {m}
  4.011084424, 18.3374292198, 0,          !- X,Y,Z Vertex 3 {m}
  4.011084424, 18.3374292198, 3.3528;     !- X,Y,Z Vertex 4 {m}

OS:Connection,
  {9de075d2-1fa0-43f4-a667-3642dc8e9128}, !- Handle
  {ec287f99-aa63-4d66-88fd-308e3c14c6ba}, !- Name
  ,                                       !- Source Object
  11,                                     !- Outlet Port
  ,                                       !- Target Object
  2;                                      !- Inlet Port

OS:Space,
  {3368d0f3-080c-428e-a6f7-eb8d5eebd364}, !- Handle
  FrontOfficeFlr1,                        !- Name
  {b0d4b74b-d195-4154-9307-208ebedd6d1b}, !- Space Type Name
  ,                                       !- Default Construction Set Name
  ,                                       !- Default Schedule Set Name
  0,                                      !- Direction of Relative North {deg}
  0,                                      !- X Origin {m}
  0,                                      !- Y Origin {m}
  0,                                      !- Z Origin {m}
  ,                                       !- Building Story Name