!-NOTE: All comments with '!-' are ignored by the IDFEditor and are generated automatically.
!-      Use '!' comments if they need to be retained when using the IDFEditor.
! WeatherFile:  USA_CO_Denver.Intl.AP.725650_TMY3.epw
! IDF File:     /phome/comstd/CtrlBenefit/simulation/OfficeLarge/sim_annual/input.nobackup/EEM41Retrofit_OfficeLarge_IntLtg_Denver.idf
! Run Case:     EEM41Retrofit_OfficeLarge_IntLtg_Denver
! GPARM parameters as input:
!    Case = EEM41Retrofit_OfficeLarge_IntLtg_Denver
!    Wfile_TMY3 = USA_CO_Denver.Intl.AP.725650_TMY3.epw
!    EEM01_Retune_MECH_SENS = base
!    EEM03_Retune_MECH_COIL = base
!    EEM04_Retune_Mech_HVAC = base
!    EEM05_Retune_MECH_SATReset = base
!    EEM06_Retune_Mech_ECON = base
!    EEM07_Retune_MECH_ExtFanShut = base
!    EEM08_Retune_MECH_StaticPReset = base
!    EEM09_Retune_Mech_DAMP = base
!    EEM10_Retune_MECH_PlantSD = base
!    EEM11_Retune_MECH_CWPPReset = base
!    EEM12_Retune_MECH_CWTReset = base
!    EEM13_Retune_MECH_CDWTReset = base
!    EEM14_Retune_MECH_HotWPPReset = base
!    EEM15_Retune_MECH_HWTReset = base
!    EEM16_Retune_MECH_MDP = base
!    EEM17_Retune_Mech_DBAN = base
!    EEM18_AdvCtrl_MECH_DCV = base
!    EEM19_AdCtrl_LTG_OCCS = base
!    EEM20_AdvCtrl_MECH_DLgtCtrl = base
!    EEM21_AdvCtrl_LTG_EXT = base
!    EEM22_AdCtrl_PLUG_PlugCtrl = base
!    EEM23_AdvCtrl_MECH_nightPurge = base
!    EEM25_AdvCtrl_MECH_ELEV = base
!    EEM26_AdvCtrl_MECH_WECO = base
!    EEM27_AdvCtrl_MECH_CoolTower = base
!    EEM33_PoCtrl_Mech_OPTM = base
!    EEM34_GridDR_MECH_Set = base
!    EEM35_GridDR_MECH_precool = base
!    EEM36_GridDR_MECH_DutyCyc = base
!    EEM37_GridDR_LTG_Clean = base
!    EEM38_GridDR_MECH_ChilledWater = base
!    EEM41_Retrofit_MECH_LTG = advn
!    EEM42_Retrofit_LTG_EXT = base
!    EEM43_Retrofit_MECH_FAN = base
!    EEM44_Retrofit_MECH_Boiler = base
!    EEM45_Retrofit_MECH_Chiller = base
!    EEM49_Retrofit_MECH_SWH = base
!    EEM50_Retrofit_MECH_Transformer = base
!    EEM51_Retrofit_ENV_Window = base
!    EEM52_Retrofit_ENV_Wall = base
!    EEM53_Retrofit_ENV_Roof = base






!-   ===========  ALL OBJECTS IN CLASS: VERSION ===========

Version,
    8.1;                     !- Version Identifier


!-   ===========  ALL OBJECTS IN CLASS: SIMULATIONCONTROL ===========

SimulationControl,
    Yes,                     !- Do Zone Sizing Calculation
    Yes,                     !- Do System Sizing Calculation
    Yes,                     !- Do Plant Sizing Calculation
    Yes,                     !- Run Simulation for Sizing Periods
    Yes;                     !- Run Simulation for Weather File Run Periods


!-   ===========  ALL OBJECTS IN CLASS: BUILDING ===========

Building,
    LargeOffice,             !- Name
    0.0000,                  !- North Axis {deg}
    City,                    !- Terrain
    0.0400,                  !- Loads Convergence Tolerance Value
    0.2000,                  !- Temperature Convergence Tolerance Value {deltaC}
    FullInteriorAndExterior, !- Solar Distribution
    25,                      !- Maximum Number of Warmup Days
    6;                       !- Minimum Number of Warmup Days


!-   ===========  ALL OBJECTS IN CLASS: SHADOWCALCULATION ===========

ShadowCalculation,
    AverageOverDaysInFrequency,  !- Calculation Method
    30,                      !- Calculation Frequency
    15000;                   !- Maximum Figures in Shadow Overlap Calculations


!-   ===========  ALL OBJECTS IN CLASS: SURFACECONVECTIONALGORITHM:INSIDE ===========

SurfaceConvectionAlgorithm:Inside,
    TARP;                    !- Algorithm


!-   ===========  ALL OBJECTS IN CLASS: SURFACECONVECTIONALGORITHM:OUTSIDE ===========

SurfaceConvectionAlgorithm:Outside,
    DOE-2;                   !- Algorithm


!-   ===========  ALL OBJECTS IN CLASS: HEATBALANCEALGORITHM ===========

HeatBalanceAlgorithm,
    ConductionTransferFunction,  !- Algorithm
    200.0000;                !- Surface Temperature Upper Limit {C}


!-   ===========  ALL OBJECTS IN CLASS: ZONEAIRHEATBALANCEALGORITHM ===========

ZoneAirHeatBalanceAlgorithm,
    AnalyticalSolution;      !- Algorithm


!-   ===========  ALL OBJECTS IN CLASS: TIMESTEP ===========


Timestep,
    12;                       !- Number of Timesteps per Hour


!-   ===========  ALL OBJECTS IN CLASS: CONVERGENCELIMITS ===========

ConvergenceLimits,
    5,                       !- Minimum System Timestep {minutes}
    25;                      !- Maximum HVAC Iterations





! general CZ related variables



!-   =========== 1111111111 Design Day Weather ===========
! Site:Location and design-day objects created by:
! /tools/bin/ddy2idf /phome/weather/EnergyPlus/tmy3.new/all/USA_CO_Denver.Intl.AP.725650_TMY3.ddy
!
Site:Location,
  Denver Intl Ap_CO_USA Design_Conditions,     !- Site:Location Name
      39.83,     !- Latitude {N+ S-}
    -104.65,     !- Longitude {W- E+}
      -7.00,     !- Time Zone Relative to GMT {GMT+/-}
    1650.00;     !- Elevation {m}

SizingPeriod:DesignDay,
  Denver Intl Ap Ann Htg 99.6% Condns DB,     !- Name
         12,      !- Month
         21,      !- Day of Month
  WinterDesignDay,!- Day Type
      -17.4,      !- Maximum Dry-Bulb Temperature {C}
        0.0,      !- Daily Dry-Bulb Temperature Range {C}
 DefaultMultipliers, !- Dry-Bulb Temperature Range Modifier Type
           ,      !- Dry-Bulb Temperature Range Modifier Schedule Name
    Wetbulb,      !- Humidity Condition Type
      -17.4,      !- Wetbulb at Maximum Dry-Bulb {C}
           ,      !- Humidity Indicating Day Schedule Name
           ,      !- Humidity Ratio at Maximum Dry-Bulb {kgWater/kgDryAir}
           ,      !- Enthalpy at Maximum Dry-Bulb {J/kg}
           ,      !- Daily WetBulb Temperature Range {deltaC}
     83011.,      !- Barometric Pressure {Pa}
        3.3,      !- Wind Speed {m/s} design conditions vs. traditional 6.71 m/s (15 mph)
        160,      !- Wind Direction {Degrees; N=0, S=180}
         No,      !- Rain {Yes/No}
         No,      !- Snow on ground {Yes/No}
         No,      !- Daylight Savings Time Indicator
  ASHRAEClearSky, !- Solar Model Indicator
           ,      !- Beam Solar Day Schedule Name
           ,      !- Diffuse Solar Day Schedule Name
           ,      !- ASHRAE Clear Sky Optical Depth for Beam Irradiance (taub)
           ,      !- ASHRAE Clear Sky Optical Depth for Diffuse Irradiance (taud)
       0.00;      !- Clearness {0.0 to 1.1}

SizingPeriod:DesignDay,
  Denver Intl Ap Ann Clg .4% Condns DB=>MWB,     !- Name
          7,      !- Month
         21,      !- Day of Month
  SummerDesignDay,!- Day Type
       34.6,      !- Maximum Dry-Bulb Temperature {C}
       15.2,      !- Daily Dry-Bulb Temperature Range {C}
 DefaultMultipliers, !- Dry-Bulb Temperature Range Modifier Type
           ,      !- Dry-Bulb Temperature Range Modifier Schedule Name
    Wetbulb,      !- Humidity Condition Type
       15.7,      !- Wetbulb at Maximum Dry-Bulb {C}
           ,      !- Humidity Indicating Day Schedule Name
           ,      !- Humidity Ratio at Maximum Dry-Bulb {kgWater/kgDryAir}
           ,      !- Enthalpy at Maximum Dry-Bulb {J/kg}
           ,      !- Daily WetBulb Temperature Range {deltaC}
     83011.,      !- Barometric Pressure {Pa}
        4.2,      !- Wind Speed {m/s} design conditions vs. traditional 3.35 m/s (7mph)
         80,      !- Wind Direction {Degrees; N=0, S=180}
         No,      !- Rain {Yes/No}
         No,      !- Snow on ground {Yes/No}
         No,      !- Daylight Savings Time Indicator
       ASHRAETau, !- Solar Model Indicator
           ,      !- Beam Solar Day Schedule Name
           ,      !- Diffuse Solar Day Schedule Name
      0.424,      !- ASHRAE Clear Sky Optical Depth for Beam Irradiance (taub)
      2.012;      !- ASHRAE Clear Sky Optical Depth for Diffuse Irradiance (taud)




!-   ===========  ALL OBJECTS IN CLASS: RUNPERIOD ===========

RunPeriod,
    ,                        !- Name
    1,                       !- Begin Month
    1,                       !- Begin Day of Month
    12,                      !- End Month
    31,                      !- End Day of Month
    Sunday,                  !- Day of Week for Start Day
    No,                      !- Use Weather File Holidays and Special Days
    No,                      !- Use Weather File Daylight Saving Period
    No,                      !- Apply Weekend Holiday Rule
    Yes,                     !- Use Weather File Rain Indicators
    Yes,                     !- Use Weather File Snow Indicators
    1.0000;                  !- Number of Times Runperiod to be Repeated


!-   ===========  ALL OBJECTS IN CLASS: RUNPERIODCONTROL:SPECIALDAYS ===========

! US National Holidays
RunPeriodControl:SpecialDays,
    New Years Day,           !- Name
    January 1,               !- Start Date
    1,                       !- Duration {days}
    Holiday;                 !- Special Day Type

RunPeriodControl:SpecialDays,
    Veterans Day,            !- Name
    November 11,             !- Start Date
    1,                       !- Duration {days}
    Holiday;                 !- Special Day Type

RunPeriodControl:SpecialDays,
    Christmas,               !- Name
    December 25,             !- Start Date
    1,                       !- Duration {days}
    Holiday;                 !- Special Day Type

RunPeriodControl:SpecialDays,
    Independence Day,        !- Name
    July 4,                  !- Start Date
    1,                       !- Duration {days}
    Holiday;                 !- Special Day Type

RunPeriodControl:SpecialDays,
    MLK Day,                 !- Name
    3rd Monday in January,   !- Start Date
    1,                       !- Duration {days}
    Holiday;                 !- Special Day Type

RunPeriodControl:SpecialDays,
    Presidents Day,          !- Name
    3rd Monday in February,  !- Start Date
    1,                       !- Duration {days}
    Holiday;                 !- Special Day Type

RunPeriodControl:SpecialDays,
    Memorial Day,            !- Name
    Last Monday in May,      !- Start Date
    1,                       !- Duration {days}
    Holiday;                 !- Special Day Type

RunPeriodControl:SpecialDays,
    Labor Day,               !- Name
    1st Monday in September, !- Start Date
    1,                       !- Duration {days}
    Holiday;                 !- Special Day Type

RunPeriodControl:SpecialDays,
    Columbus Day,            !- Name
    2nd Monday in October,   !- Start Date
    1,                       !- Duration {days}
    Holiday;                 !- Special Day Type

RunPeriodControl:SpecialDays,
    Thanksgiving,            !- Name
    4th Thursday in November,!- Start Date
    1,                       !- Duration {days}
    Holiday;                 !- Special Day Type


!-   ===========  ALL OBJECTS IN CLASS: RUNPERIODCONTROL:DAYLIGHTSAVINGTIME ===========

! Daylight Saving Period in US
RunPeriodControl:DaylightSavingTime,
    2nd Sunday in March,     !- Start Date
    1st Sunday in November;  !- End Date



!-   ===========  ALL OBJECTS IN CLASS: SITE:LOCATION ===========





!-   ===========  ALL OBJECTS IN CLASS: SITE:LOCATION ===========








!-   ===========  ALL OBJECTS IN CLASS: SITE:LOCATION ===========

	







!-   ===========  ALL OBJECTS IN CLASS: SITE:WATERMAINSTEMPERATURE ===========

Site:WaterMainsTemperature,
    Correlation,             !- Calculation Method
    ,                        !- Temperature Schedule Name
    10.9,                   !- Annual Average Outdoor Air Temperature {C}
    23.2;                    !- Maximum Difference In Monthly Average Outdoor Air Temperatures {deltaC}


!-   ===========  ALL OBJECTS IN CLASS: SCHEDULETYPELIMITS ===========

!***** Schedule Set *****
ScheduleTypeLimits,
    Any Number;              !- Name

ScheduleTypeLimits,
    Fraction,                !- Name
    0.0,                     !- Lower Limit Value
    1.0,                     !- Upper Limit Value
    CONTINUOUS;              !- Numeric Type

ScheduleTypeLimits,
    Temperature,             !- Name
    -60,                     !- Lower Limit Value
    200,                     !- Upper Limit Value
    CONTINUOUS;              !- Numeric Type

ScheduleTypeLimits,
    On/Off,                  !- Name
    0,                       !- Lower Limit Value
    1,                       !- Upper Limit Value
    DISCRETE;                !- Numeric Type

ScheduleTypeLimits,
    Control Type,            !- Name
    0,                       !- Lower Limit Value
    4,                       !- Upper Limit Value
    DISCRETE;                !- Numeric Type

ScheduleTypeLimits,
    Humidity,                !- Name
    10,                      !- Lower Limit Value
    90,                      !- Upper Limit Value
    CONTINUOUS;              !- Numeric Type

ScheduleTypeLimits,
    Number;                  !- Name


!-   ===========  ALL OBJECTS IN CLASS: SCHEDULE:COMPACT ===========

Schedule:Compact,
    ZN_1_FLR_1_SEC_5 Water Equipment Latent fract sched,  !- Name
    Fraction,                !- Schedule Type Limits Name
    Through: 12/31,          !- Field 1
    For: AllDays,            !- Field 2
    Until: 24:00,            !- Field 3
    0;                       !- Field 4

Schedule:Compact,
    ZN_1_FLR_1_SEC_5 Water Equipment Sensible fract sched,  !- Name
    Fraction,                !- Schedule Type Limits Name
    Through: 12/31,          !- Field 1
    For: AllDays,            !- Field 2
    Until: 24:00,            !- Field 3
    0;                       !- Field 4

Schedule:Compact,
    ZN_1_FLR_1_SEC_5 Water Equipment Temp Sched,  !- Name
    Temperature,             !- Schedule Type Limits Name
    Through: 12/31,          !- Field 1
    For: AllDays,            !- Field 2
    Until: 24:00,            !- Field 3
    43.3;                    !- Field 4

Schedule:Compact,
    ZN_1_FLR_2_SEC_5 Water Equipment Latent fract sched,  !- Name
    Fraction,                !- Schedule Type Limits Name
    Through: 12/31,          !- Field 1
    For: AllDays,            !- Field 2
    Until: 24:00,            !- Field 3
    0;                       !- Field 4

Schedule:Compact,
    ZN_1_FLR_2_SEC_5 Water Equipment Sensible fract sched,  !- Name
    Fraction,                !- Schedule Type Limits Name
    Through: 12/31,          !- Field 1
    For: AllDays,            !- Field 2
    Until: 24:00,            !- Field 3
    0;                       !- Field 4

Schedule:Compact,
    ZN_1_FLR_2_SEC_5 Water Equipment Temp Sched,  !- Name
    Temperature,             !- Schedule Type Limits Name
    Through: 12/31,          !- Field 1
    For: AllDays,            !- Field 2
    Until: 24:00,            !- Field 3
    43.3;                    !- Field 4

Schedule:Compact,
    ZN_1_FLR_3_SEC_5 Water Equipment Latent fract sched,  !- Name
    Fraction,                !- Schedule Type Limits Name
    Through: 12/31,          !- Field 1
    For: AllDays,            !- Field 2
    Until: 24:00,            !- Field 3
    0;                       !- Field 4

Schedule:Compact,
    ZN_1_FLR_3_SEC_5 Water Equipment Sensible fract sched,  !- Name
    Fraction,                !- Schedule Type Limits Name
    Through: 12/31,          !- Field 1
    For: AllDays,            !- Field 2
    Until: 24:00,            !- Field 3
    0;                       !- Field 4

Schedule:Compact,
    ZN_1_FLR_3_SEC_5 Water Equipment Temp Sched,  !- Name
    Temperature,             !- Schedule Type Limits Name
    Through: 12/31,          !- Field 1
    For: AllDays,            !- Field 2
    Until: 24:00,            !- Field 3
    43.3;                    !- Field 4

Schedule:Compact,
    SWHSys1-Loop-Temp-Schedule,  !- Name
    Temperature,             !- Schedule Type Limits Name
    Through: 12/31,          !- Field 1
    For: AllDays,            !- Field 2
    Until: 24:00,            !- Field 3
    48.9;                    !- Field 4

Schedule:Compact,
    SWHSys1 Water Heater Setpoint Temperature Schedule Name,  !- Name
    Temperature,             !- Schedule Type Limits Name
    Through: 12/31,          !- Field 1
    For: AllDays,            !- Field 2
    Until: 24:00,            !- Field 3
    48.9;                    !- Field 4

Schedule:Compact,
    SWHSys1 Water Heater Ambient Temperature Schedule Name,  !- Name
    Temperature,             !- Schedule Type Limits Name
    Through: 12/31,          !- Field 1
    For: AllDays,            !- Field 2
    Until: 24:00,            !- Field 3
    22.0;                    !- Field 4

Schedule:Compact,
    HeatSys1 Loop Setpoint Sched,  !- Name
    Temperature,             !- Schedule Type Limits Name
    Through: 12/31,          !- Field 1
    For: AllDays,            !- Field 2
    Until: 24:00,            !- Field 3
    82.2;                    !- Field 4

Schedule:Compact,
    CoolSys1 Loop Setpoint Sched,  !- Name
    Temperature,             !- Schedule Type Limits Name
    Through: 12/31,          !- Field 1
    For: AllDays,            !- Field 2
    Until: 24:00,            !- Field 3
    6.6700;                  !- Field 4

! On peak and off peak hours are constant across the FP&L TOU schedules of interest.
! Therefore, just one TOU schedule:
Schedule:Compact,
    FPL_TOU_Schedule,        !- Name
    Number,                  !- Schedule Type Limits Name
    Through: 3/31,           !- Field 1
    For: WeekDays,           !- Field 2
    Until: 06:00,            !- Field 3
    3,                       !- Field 4
    Until: 10:00,            !- Field 5
    1,                       !- Field 6
    Until: 18:00,            !- Field 7
    3,                       !- Field 8
    Until: 22:00,            !- Field 9
    1,                       !- Field 10
    Until: 24:00,            !- Field 11
    3,                       !- Field 12
    For: AllOtherDays,       !- Field 13
    Until: 24:00,            !- Field 14
    3,                       !- Field 15
    Through: 10/31,          !- Field 16
    For: WeekDays,           !- Field 17
    Until: 12:00,            !- Field 18
    3,                       !- Field 19
    Until: 21:00,            !- Field 20
    1,                       !- Field 21
    Until: 24:00,            !- Field 22
    3,                       !- Field 23
    For: AllOtherDays,       !- Field 24
    Until: 24:00,            !- Field 25
    3,                       !- Field 26
    Through: 12/31,          !- Field 27
    For: WeekDays,           !- Field 28
    Until: 06:00,            !- Field 29
    3,                       !- Field 30
    Until: 10:00,            !- Field 31
    1,                       !- Field 32
    Until: 18:00,            !- Field 33
    3,                       !- Field 34
    Until: 22:00,            !- Field 35
    1,                       !- Field 36
    Until: 24:00,            !- Field 37
    3,                       !- Field 38
    For: AllOtherDays,       !- Field 39
    Until: 24:00,            !- Field 40
    3;                       !- Field 41

! EEM19_AdCtrl_LTG_OCCS
! line 467 change one number in BLDG_LIGHT_SCH_Base
Schedule:Compact,
    BLDG_LIGHT_SCH_Base,     !- Name
    Fraction,                !- Schedule Type Limits Name
    Through: 12/31,          !- Field 1
    For: Weekdays,           !- Field 2
    Until: 05:00,            !- Field 3
    0.15,                    !- Field 4
    Until: 07:00,            !- Field 5
    0.15,                    !- Field 6
    Until: 08:00,            !- Field 7
    0.3,                     !- Field 8
    Until: 17:00,            !- Field 9
    0.9,                     !- Field 10
    Until: 18:00,            !- Field 11
    0.5,                     !- Field 12
    Until: 20:00,            !- Field 13
    0.3,                     !- Field 14
    Until: 22:00,            !- Field 15
    0.2,                     !- Field 16
    Until: 23:00,            !- Field 17
    0.15,                    !- Field 18
    Until: 24:00,            !- Field 19
    0.15,                    !- Field 20
    For: SummerDesignDay,    !- Field 21
    Until: 24:00,            !- Field 22
    1.0,                     !- Field 23
    For: Saturday,           !- Field 24
    Until: 06:00,            !- Field 25
    0.15,                    !- Field 26
    Until: 08:00,            !- Field 27
    0.15,                    !- Field 28
    Until: 12:00,            !- Field 29
    0.3,                     !- Field 30
    Until: 17:00,            !- Field 31
    0.15,                    !- Field 32
    Until: 24:00,            !- Field 33
    0.15,                    !- Field 34
    For: WinterDesignDay,    !- Field 35
    Until: 24:00,            !- Field 36
    0.0,                     !- Field 37
    For: Sunday Holidays AllOtherDays,  !- Field 38
    Until: 24:00,            !- Field 39
    0.15;                    !- Field 40



!- PART1: EEM37_GridDR_LTG_Clean: insert schedule line 499-541
    





Schedule:Compact,
    BLDG_EQUIP_SCH_Base,     !- Name
    Fraction,                !- Schedule Type Limits Name
    Through: 12/31,          !- Field 1
    For: Weekdays,           !- Field 2
    Until: 08:00,            !- Field 3
    0.40,                    !- Field 4
    Until: 12:00,            !- Field 5
    0.90,                    !- Field 6
    Until: 13:00,            !- Field 7
    0.80,                    !- Field 8
    Until: 17:00,            !- Field 9
    0.90,                    !- Field 10
    Until: 18:00,            !- Field 11
    0.50,                    !- Field 12
    Until: 24:00,            !- Field 13
    0.40,                    !- Field 14
    For: SummerDesignDay,    !- Field 15
    Until: 24:00,            !- Field 16
    1.0,                     !- Field 17
    For: Saturday,           !- Field 18
    Until: 06:00,            !- Field 19
    0.30,                    !- Field 20
    Until: 08:00,            !- Field 21
    0.4,                     !- Field 22
    Until: 12:00,            !- Field 23
    0.5,                     !- Field 24
    Until: 17:00,            !- Field 25
    0.35,                    !- Field 26
    Until: 24:00,            !- Field 27
    0.30,                    !- Field 28
    For: WinterDesignDay,    !- Field 29
    Until: 24:00,            !- Field 30
    0.0,                     !- Field 31
    For: Sunday Holidays AllOtherDays,  !- Field 32
    Until: 24:00,            !- Field 33
    0.30;                    !- Field 34

Schedule:Compact,
    BLDG_EQUIP_SCH_Adv,      !- Name
    Fraction,                !- Schedule Type Limits Name
    Through: 12/31,          !- Field 1
    For: Weekdays,           !- Field 2
    Until: 08:00,            !- Field 3
    0.31,                    !- Field 4
    Until: 12:00,            !- Field 5
    0.86,                    !- Field 6
    Until: 13:00,            !- Field 7
    0.75,                    !- Field 8
    Until: 17:00,            !- Field 9
    0.86,                    !- Field 10
    Until: 18:00,            !- Field 11
    0.45,                    !- Field 12
    Until: 24:00,            !- Field 13
    0.31,                    !- Field 14
    For: SummerDesignDay,    !- Field 15
    Until: 24:00,            !- Field 16
    1.0,                     !- Field 17
    For: Saturday,           !- Field 18
    Until: 06:00,            !- Field 19
    0.20,                    !- Field 20
    Until: 08:00,            !- Field 21
    0.3,                     !- Field 22
    Until: 12:00,            !- Field 23
    0.4,                     !- Field 24
    Until: 17:00,            !- Field 25
    0.30,                    !- Field 26
    Until: 24:00,            !- Field 27
    0.20,                    !- Field 28
    For: WinterDesignDay,    !- Field 29
    Until: 24:00,            !- Field 30
    0.0,                     !- Field 31
    For: Sunday Holidays AllOtherDays,  !- Field 32
    Until: 24:00,            !- Field 33
    0.20;                    !- Field 34

Schedule:Compact,
    DataCenter_Plug_SCH,     !- Name
    Fraction,                !- Schedule Type Limits Name
    Through: 12/31,          !- Field 1
    For: Weekdays,           !- Field 2
    Until: 08:00,            !- Field 3
    0.75,                    !- Field 4
    Until: 18:00,            !- Field 5
    1.0,                     !- Field 6
    Until: 24:00,            !- Field 7
    0.75,                    !- Field 8
    For: SummerDesignDay,    !- Field 9
    Until: 24:00,            !- Field 10
    1.0,                     !- Field 11
    For: Saturday,           !- Field 12
    Until: 08:00,            !- Field 13
    0.75,                    !- Field 14
    Until: 14:00,            !- Field 15
    1.0,                     !- Field 16
    Until: 24:00,            !- Field 17
    0.75,                    !- Field 18
    For: WinterDesignDay,    !- Field 19
    Until: 24:00,            !- Field 20
    0.0,                     !- Field 21
    For: Sunday Holidays AllOtherDays,  !- Field 22
    Until: 24:00,            !- Field 23
    0.75;                    !- Field 24
    
! PART1: EEM21_AdvCtrl_LTG_EXT
! part 1: put parking light schedule into the model: line 603-629 of the "adv" model
Schedule:Compact,
    ParkingLightsSch,     !- Name
    Fraction,                !- Schedule Type Limits Name
    Through: 12/31,          !- Field 1
    For: Weekdays,           !- Field 2
    Until: 5:00,            !- Field 3
    0.25,                    !- Field 4
    Until: 19:00,            !- Field 5
    1.0,                     !- Field 6
    Until: 24:00,            !- Field 7
    0.25,                    !- Field 8
    For: SummerDesignDay,    !- Field 9
    Until: 24:00,            !- Field 10
    1.0,                     !- Field 11
    For: Saturday,           !- Field 12
    Until: 05:00,            !- Field 13
    0.25,                    !- Field 14
    Until: 19:00,            !- Field 15
    1.0,                     !- Field 16
    Until: 24:00,            !- Field 17
    0.25,                    !- Field 18
    For: WinterDesignDay,    !- Field 19
    Until: 24:00,            !- Field 20
    1,                     !- Field 21
    For: Sunday Holidays AllOtherDays,  !- Field 22
    Until: 24:00,            !- Field 23
    0.25;                    !- Field 24

    
    

Schedule:Compact,
    BLDG_OCC_SCH,            !- Name
    Fraction,                !- Schedule Type Limits Name
    Through: 12/31,          !- Field 1
    For: Weekdays,           !- Field 2
    Until: 06:00,            !- Field 3
    0.0,                     !- Field 4
    Until: 07:00,            !- Field 5
    0.1,                     !- Field 6
    Until: 08:00,            !- Field 7
    0.2,                     !- Field 8
    Until: 12:00,            !- Field 9
    0.95,                    !- Field 10
    Until: 13:00,            !- Field 11
    0.5,                     !- Field 12
    Until: 17:00,            !- Field 13
    0.95,                    !- Field 14
    Until: 18:00,            !- Field 15
    0.3,                     !- Field 16
    Until: 22:00,            !- Field 17
    0.1,                     !- Field 18
    Until: 24:00,            !- Field 19
    0.05,                    !- Field 20
    For: SummerDesignDay,    !- Field 21
    Until: 06:00,            !- Field 22
    0.0,                     !- Field 23
    Until: 22:00,            !- Field 24
    1.0,                     !- Field 25
    Until: 24:00,            !- Field 26
    0.05,                    !- Field 27
    For: Saturday,           !- Field 28
    Until: 06:00,            !- Field 29
    0.0,                     !- Field 30
    Until: 08:00,            !- Field 31
    0.1,                     !- Field 32
    Until: 12:00,            !- Field 33
    0.3,                     !- Field 34
    Until: 17:00,            !- Field 35
    0.1,                     !- Field 36
    Until: 19:00,            !- Field 37
    0.05,                    !- Field 38
    Until: 24:00,            !- Field 39
    0.0,                     !- Field 40
    For: WinterDesignDay,    !- Field 41
    Until: 24:00,            !- Field 42
    0.0,                     !- Field 43
    For: Sunday Holidays AllOtherDays,  !- Field 44
    Until: 06:00,            !- Field 45
    0.0,                     !- Field 46
    Until: 18:00,            !- Field 47
    0.05,                    !- Field 48
    Until: 24:00,            !- Field 49
    0.0;                     !- Field 50

Schedule:Compact,
    FLR1_CONF_OCC_SCH,       !- Name
    Fraction,                !- Schedule Type Limits Name
    Through: 12/31,          !- Field 1
    For: Weekdays,           !- Field 2
    Until: 06:00,            !- Field 3
    0.0,                     !- Field 4
    Until: 08:00,            !- Field 5
    0.0,                     !- Field 6
    Until: 10:00,            !- Field 7
    1.0,                     !- Field 8
    Until: 14:00,            !- Field 9
    0.0,                     !- Field 10
    Until: 15:00,            !- Field 11
    1.0,                     !- Field 12
    Until: 24:00,            !- Field 13
    0.0,                     !- Field 14
    For: SummerDesignDay,    !- Field 15
    Until: 06:00,            !- Field 16
    0.0,                     !- Field 17
    Until: 22:00,            !- Field 18
    1.0,                     !- Field 19
    Until: 24:00,            !- Field 20
    0.0,                     !- Field 21
    For: Saturday,           !- Field 22
    Until: 24:00,            !- Field 23
    0.0,                     !- Field 24
    For: WinterDesignDay,    !- Field 25
    Until: 24:00,            !- Field 26
    0.0,                     !- Field 27
    For: Sunday Holidays AllOtherDays,  !- Field 28
    Until: 24:00,            !- Field 29
    0.0;                     !- Field 30

Schedule:Compact,
    FLR3_CONF_OCC_SCH,       !- Name
    Fraction,                !- Schedule Type Limits Name
    Through: 12/31,          !- Field 1
    For: Weekdays,           !- Field 2