!-NOTE: All comments with '!-' are ignored by the IDFEditor and are generated automatically.
!-      Use '!' comments if they need to be retained when using the IDFEditor.
! WeatherFile:  USA_CA_San.Francisco.Intl.AP.724940_TMY3.epw
! IDF File:     /phome/comstd/CtrlBenefit/simulation/OfficeMedium/sim_annual/input.nobackup/EEM52Retrofit_OfficeMedium_Wall2010_SanFrancisco.idf
! Run Case:     EEM52Retrofit_OfficeMedium_Wall2010_SanFrancisco
! GPARM parameters as input:
!    Case = EEM52Retrofit_OfficeMedium_Wall2010_SanFrancisco
!    Wfile_TMY3 = USA_CA_San.Francisco.Intl.AP.724940_TMY3.epw
!    EEM01_Retune_MECH_SENS = base
!    EEM02_Retune_MECH_REFRG = base
!    EEM04_Retune_Mech_HVAC = base
!    EEM05_Retune_MECH_SATReset = base
!    EEM06_Retune_Mech_ECON = base
!    EEM07_Retune_MECH_ExtFanShut = base
!    EEM08_Retune_MECH_StaticPReset = base
!    EEM09_Retune_Mech_DAMP = base
!    EEM16_Retune_MECH_MDP = base
!    EEM17_Retune_Mech_DBAN = base
!    EEM18_AdvCtrl_MECH_DCV = base
!    EEM19_AdCtrl_LTG_OCCS = base
!    EEM20_AdvCtrl_MECH_DLgtCtrl = base
!    EEM21_AdvCtrl_LTG_EXT = base
!    EEM22_AdCtrl_PLUG_PlugCtrl = base
!    EEM23_AdvCtrl_MECH_nightPurge = base
!    EEM25_AdvCtrl_MECH_ELEV = base
!    EEM33_PoCtrl_Mech_OPTM = base
!    EEM34_GridDR_MECH_Set = base
!    EEM35_GridDR_MECH_precool = base
!    EEM36_GridDR_MECH_DutyCyc = base
!    EEM37_GridDR_LTG_Clean = base
!    EEM41_Retrofit_MECH_LTG = base
!    EEM42_Retrofit_LTG_EXT = base
!    EEM43_Retrofit_MECH_FAN = base
!    EEM46_Retrofit_MECH_COP = base
!    EEM47_Retrofit_MECH_EVAP = base
!    EEM49_Retrofit_MECH_SWH = base
!    EEM51_Retrofit_ENV_Window = base
!    EEM52_Retrofit_ENV_Wall = STD2010
!    EEM53_Retrofit_ENV_Roof = base





!-   ===========  ALL OBJECTS IN CLASS: VERSION ===========

Version,
    8.1;                     !- Version Identifier


!-   ===========  ALL OBJECTS IN CLASS: SIMULATIONCONTROL ===========

SimulationControl,
    Yes,                     !- Do Zone Sizing Calculation
    Yes,                     !- Do System Sizing Calculation
    Yes,                     !- Do Plant Sizing Calculation
    Yes,                     !- Run Simulation for Sizing Periods
    Yes;                     !- Run Simulation for Weather File Run Periods


!-   ===========  ALL OBJECTS IN CLASS: BUILDING ===========

Building,
    ASHRAE 90.1 Prototype:Medium Office,  !- Name
    0,                       !- North Axis {deg}
    City,                    !- Terrain
    0.0400,                  !- Loads Convergence Tolerance Value
    0.2000,                  !- Temperature Convergence Tolerance Value {deltaC}
    FullInteriorAndExterior, !- Solar Distribution
    25,                      !- Maximum Number of Warmup Days
    6;                       !- Minimum Number of Warmup Days


!-   ===========  ALL OBJECTS IN CLASS: SHADOWCALCULATION ===========

ShadowCalculation,
    AverageOverDaysInFrequency,  !- Calculation Method
    30;                      !- Calculation Frequency


!-   ===========  ALL OBJECTS IN CLASS: SURFACECONVECTIONALGORITHM:INSIDE ===========

SurfaceConvectionAlgorithm:Inside,
    TARP;                    !- Algorithm


!-   ===========  ALL OBJECTS IN CLASS: SURFACECONVECTIONALGORITHM:OUTSIDE ===========

SurfaceConvectionAlgorithm:Outside,
    TARP;                    !- Algorithm


!-   ===========  ALL OBJECTS IN CLASS: HEATBALANCEALGORITHM ===========

HeatBalanceAlgorithm,
    ConductionTransferFunction;  !- Algorithm


12



Timestep,
    12;                       	!- Number of Timesteps per Hour
    25;                      		!- Maximum HVAC Iterations
    
   
! general CZ related variables



!-   =========== 1111111111 Design Day Weather ===========
! Site:Location and design-day objects created by:
! /tools/bin/ddy2idf /phome/weather/EnergyPlus/tmy3.new/all/USA_CA_San.Francisco.Intl.AP.724940_TMY3.ddy
!
Site:Location,
  San Francisco Intl Ap_CA_USA Design_Conditions,     !- Site:Location Name
      37.62,     !- Latitude {N+ S-}
    -122.40,     !- Longitude {W- E+}
      -8.00,     !- Time Zone Relative to GMT {GMT+/-}
       2.00;     !- Elevation {m}

SizingPeriod:DesignDay,
  San Francisco Intl Ap Ann Htg 99.6% Condns DB,     !- Name
          1,      !- Month
         21,      !- Day of Month
  WinterDesignDay,!- Day Type
        3.8,      !- Maximum Dry-Bulb Temperature {C}
        0.0,      !- Daily Dry-Bulb Temperature Range {C}
 DefaultMultipliers, !- Dry-Bulb Temperature Range Modifier Type
           ,      !- Dry-Bulb Temperature Range Modifier Schedule Name
    Wetbulb,      !- Humidity Condition Type
        3.8,      !- Wetbulb at Maximum Dry-Bulb {C}
           ,      !- Humidity Indicating Day Schedule Name
           ,      !- Humidity Ratio at Maximum Dry-Bulb {kgWater/kgDryAir}
           ,      !- Enthalpy at Maximum Dry-Bulb {J/kg}
           ,      !- Daily WetBulb Temperature Range {deltaC}
    101301.,      !- Barometric Pressure {Pa}
        2.2,      !- Wind Speed {m/s} design conditions vs. traditional 6.71 m/s (15 mph)
        150,      !- Wind Direction {Degrees; N=0, S=180}
         No,      !- Rain {Yes/No}
         No,      !- Snow on ground {Yes/No}
         No,      !- Daylight Savings Time Indicator
  ASHRAEClearSky, !- Solar Model Indicator
           ,      !- Beam Solar Day Schedule Name
           ,      !- Diffuse Solar Day Schedule Name
           ,      !- ASHRAE Clear Sky Optical Depth for Beam Irradiance (taub)
           ,      !- ASHRAE Clear Sky Optical Depth for Diffuse Irradiance (taud)
       0.00;      !- Clearness {0.0 to 1.1}

SizingPeriod:DesignDay,
  San Francisco Intl Ap Ann Clg .4% Condns DB=>MWB,     !- Name
          8,      !- Month
         21,      !- Day of Month
  SummerDesignDay,!- Day Type
       28.3,      !- Maximum Dry-Bulb Temperature {C}
        8.5,      !- Daily Dry-Bulb Temperature Range {C}
 DefaultMultipliers, !- Dry-Bulb Temperature Range Modifier Type
           ,      !- Dry-Bulb Temperature Range Modifier Schedule Name
    Wetbulb,      !- Humidity Condition Type
       17.2,      !- Wetbulb at Maximum Dry-Bulb {C}
           ,      !- Humidity Indicating Day Schedule Name
           ,      !- Humidity Ratio at Maximum Dry-Bulb {kgWater/kgDryAir}
           ,      !- Enthalpy at Maximum Dry-Bulb {J/kg}
           ,      !- Daily WetBulb Temperature Range {deltaC}
    101301.,      !- Barometric Pressure {Pa}
        5.9,      !- Wind Speed {m/s} design conditions vs. traditional 3.35 m/s (7mph)
        310,      !- Wind Direction {Degrees; N=0, S=180}
         No,      !- Rain {Yes/No}
         No,      !- Snow on ground {Yes/No}
         No,      !- Daylight Savings Time Indicator
       ASHRAETau, !- Solar Model Indicator
           ,      !- Beam Solar Day Schedule Name
           ,      !- Diffuse Solar Day Schedule Name
      0.365,      !- ASHRAE Clear Sky Optical Depth for Beam Irradiance (taub)
      2.435;      !- ASHRAE Clear Sky Optical Depth for Diffuse Irradiance (taud)




!-   ===========  ALL OBJECTS IN CLASS: RUNPERIOD ===========

RunPeriod,
    ,                        !- Name
    1,                       !- Begin Month
    1,                       !- Begin Day of Month
    12,                      !- End Month
    31,                      !- End Day of Month
    Sunday,                  !- Day of Week for Start Day
    No,                      !- Use Weather File Holidays and Special Days
    No,                      !- Use Weather File Daylight Saving Period
    No,                      !- Apply Weekend Holiday Rule
    Yes,                     !- Use Weather File Rain Indicators
    Yes;                     !- Use Weather File Snow Indicators


!-   ===========  ALL OBJECTS IN CLASS: RUNPERIODCONTROL:SPECIALDAYS ===========

! US National Holidays
RunPeriodControl:SpecialDays,
    New Years Day,           !- Name
    January 1,               !- Start Date
    1,                       !- Duration {days}
    Holiday;                 !- Special Day Type

RunPeriodControl:SpecialDays,
    Veterans Day,            !- Name
    November 11,             !- Start Date
    1,                       !- Duration {days}
    Holiday;                 !- Special Day Type

RunPeriodControl:SpecialDays,
    Christmas,               !- Name
    December 25,             !- Start Date
    1,                       !- Duration {days}
    Holiday;                 !- Special Day Type

RunPeriodControl:SpecialDays,
    Independence Day,        !- Name
    July 4,                  !- Start Date
    1,                       !- Duration {days}
    Holiday;                 !- Special Day Type

RunPeriodControl:SpecialDays,
    MLK Day,                 !- Name
    3rd Monday in January,   !- Start Date
    1,                       !- Duration {days}
    Holiday;                 !- Special Day Type

RunPeriodControl:SpecialDays,
    Presidents Day,          !- Name
    3rd Monday in February,  !- Start Date
    1,                       !- Duration {days}
    Holiday;                 !- Special Day Type

RunPeriodControl:SpecialDays,
    Memorial Day,            !- Name
    Last Monday in May,      !- Start Date
    1,                       !- Duration {days}
    Holiday;                 !- Special Day Type

RunPeriodControl:SpecialDays,
    Labor Day,               !- Name
    1st Monday in September, !- Start Date
    1,                       !- Duration {days}
    Holiday;                 !- Special Day Type

RunPeriodControl:SpecialDays,
    Columbus Day,            !- Name
    2nd Monday in October,   !- Start Date
    1,                       !- Duration {days}
    Holiday;                 !- Special Day Type

RunPeriodControl:SpecialDays,
    Thanksgiving,            !- Name
    4th Thursday in November,!- Start Date
    1,                       !- Duration {days}
    Holiday;                 !- Special Day Type


!-   ===========  ALL OBJECTS IN CLASS: RUNPERIODCONTROL:DAYLIGHTSAVINGTIME ===========

! Daylight Saving Period in US
RunPeriodControl:DaylightSavingTime,
    2nd Sunday in March,     !- Start Date
    1st Sunday in November;  !- End Date



!-   ===========  ALL OBJECTS IN CLASS: SITE:LOCATION ===========





!-   ===========  ALL OBJECTS IN CLASS: SITE:LOCATION ===========








!-   ===========  ALL OBJECTS IN CLASS: SITE:LOCATION ===========

	













!-   ===========  ALL OBJECTS IN CLASS: SITE:WATERMAINSTEMPERATURE ===========

Site:WaterMainsTemperature,
    Correlation,             !- Calculation Method
    ,                        !- Temperature Schedule Name
    13.78,                   !- Annual Average Outdoor Air Temperature {C}
    7.1;                   !- Maximum Difference In Monthly Average Outdoor Air Temperatures {deltaC}


!-   ===========  ALL OBJECTS IN CLASS: SCHEDULETYPELIMITS ===========

ScheduleTypeLimits,
    Any Number;              !- Name

ScheduleTypeLimits,
    Fraction,                !- Name
    0.0,                     !- Lower Limit Value
    1.0,                     !- Upper Limit Value
    Continuous;              !- Numeric Type

ScheduleTypeLimits,
    Temperature,             !- Name
    -60,                     !- Lower Limit Value
    200,                     !- Upper Limit Value
    Continuous;              !- Numeric Type

ScheduleTypeLimits,
    On/Off,                  !- Name
    0,                       !- Lower Limit Value
    1,                       !- Upper Limit Value
    Discrete;                !- Numeric Type

ScheduleTypeLimits,
    Control Type,            !- Name
    0,                       !- Lower Limit Value
    4,                       !- Upper Limit Value
    Discrete;                !- Numeric Type

ScheduleTypeLimits,
    Humidity,                !- Name
    10,                      !- Lower Limit Value
    90,                      !- Upper Limit Value
    Continuous;              !- Numeric Type

ScheduleTypeLimits,
    Number;                  !- Name


!-   ===========  ALL OBJECTS IN CLASS: SCHEDULE:COMPACT ===========

! Hours: Weekly: 92, Yearly: 4797
Schedule:Compact,
    Hours_of_operation,      !- Name
    on/off,                  !- Schedule Type Limits Name
    Through: 12/31,          !- Field 1
    For: Weekdays SummerDesignDay,  !- Field 2
    Until: 06:00,            !- Field 3
    0.0,                     !- Field 4
    Until: 22:00,            !- Field 5
    1.0,                     !- Field 6
    Until: 24:00,            !- Field 7
    0.0,                     !- Field 8
    For: Saturday WinterDesignDay,  !- Field 9
    Until: 06:00,            !- Field 10
    0.0,                     !- Field 11
    Until: 18:00,            !- Field 12
    1.0,                     !- Field 13
    Until: 24:00,            !- Field 14
    0.0,                     !- Field 15
    For: Sunday Holidays AllOtherDays,  !- Field 16
    Until: 24:00,            !- Field 17
    0.0;                     !- Field 18

Schedule:Compact,
    ALWAYS_ON,               !- Name
    Fraction,                !- Schedule Type Limits Name
    Through: 12/31,          !- Field 1
    For: AllDays,            !- Field 2
    Until: 24:00,            !- Field 3
    1.0;                     !- Field 4

Schedule:Compact,
    ALWAYS_OFF,              !- Name
    Fraction,                !- Schedule Type Limits Name
    Through: 12/31,          !- Field 1
    For: AllDays,            !- Field 2
    Until: 24:00,            !- Field 3
    0.0;                     !- Field 4
    
    
! PART3: EEM33_PoCtrl_Mech_OPTM: insert line 501-520 + line 1481-1581 (start) of six new schedule before the HVACOperationSche at line 498






! April 1, 2014: revised night cycle availability schedules for all prototypes based on email on April 1, 2014: 5:38 pm





! PART1: EEM04_Retune_Mech_HVAC: HVACOperationSch schedule line 498-520
! Schedule Office HVAC Systems, ASHRAE 90.1-1989, Section 13
!  Equivalent Full-Load Hours: Weekdays 16, Saturday 12, Sunday/Holidays 0
Schedule:Compact,
    HVACOperationSchd,       !- Name
    on/off,                  !- Schedule Type Limits Name
    Through: 12/31,          !- Field 1
    For: Weekdays SummerDesignDay WinterDesignDay,  !- Field 2
    Until: 05:00,            !- Field 3
    0.0,                     !- Field 4
    Until: 22:00,            !- Field 5
    1.0,                     !- Field 6
    Until: 24:00,            !- Field 7
    0.0,                     !- Field 8
    For: Saturday,           !- Field 9
    Until: 05:00,            !- Field 10
    0.0,                     !- Field 11
    Until: 18:00,            !- Field 12
    1.0,                     !- Field 13
    Until: 24:00,            !- Field 14
    0.0,                     !- Field 15
    For: Sunday Holidays AllOtherDays,  !- Field 16
    Until: 24:00,            !- Field 17
    0.0;                     !- Field 18




! PART 1: EEM08_Retune_MECH_StaticPReset: insert line 522-542 (TOD) after line 520 and before line 522 of baseline




Schedule:Compact,
    ExFanOperationSchd,      !- Name
    on/off,                  !- Schedule Type Limits Name
    Through: 12/31,          !- Field 1
    For: Weekdays SummerDesignDay WinterDesignDay,  !- Field 2
    Until: 05:00,            !- Field 3
    1.0,                     !- Field 4
    Until: 22:00,            !- Field 5
    1.0,                     !- Field 6
    Until: 24:00,            !- Field 7
    1.0,                     !- Field 8
    For: Saturday,           !- Field 9
    Until: 05:00,            !- Field 10
    1.0,                     !- Field 11
    Until: 18:00,            !- Field 12
    1.0,                     !- Field 13
    Until: 24:00,            !- Field 14
    1.0,                     !- Field 15
    For: Sunday Holidays AllOtherDays,  !- Field 16
    Until: 24:00,            !- Field 17
    1.0;                     !- Field 18

! PART1: EEM19_AdCtrl_LTG_OCCS: line 545-587, change intensity at 17:00
! Schedule Office Lighting,  ASHRAE 90.1-1989, Section 13 w/addenda
Schedule:Compact,
    BLDG_LIGHT_SCH,          !- Name
    Fraction,                !- Schedule Type Limits Name
    Through: 12/31,          !- Field 1
    For: Weekdays,           !- Field 2
    Until: 05:00,            !- Field 3
    0.15,                    !- Field 4
    Until: 07:00,            !- Field 5
    0.15,                    !- Field 6
    Until: 08:00,            !- Field 7
    0.3,                     !- Field 8
    Until: 17:00,            !- Field 9
    0.9,                     !- Field 10
    Until: 18:00,            !- Field 11
    0.5,                     !- Field 12
    Until: 20:00,            !- Field 13
    0.3,                     !- Field 14
    Until: 22:00,            !- Field 15
    0.2,                     !- Field 16
    Until: 23:00,            !- Field 17
    0.15,                    !- Field 18
    Until: 24:00,            !- Field 19
    0.15,                    !- Field 20
    For: SummerDesignDay,    !- Field 21
    Until: 24:00,            !- Field 22
    1.0,                     !- Field 23
    For: Saturday,           !- Field 24
    Until: 06:00,            !- Field 25
    0.15,                    !- Field 26
    Until: 08:00,            !- Field 27
    0.15,                    !- Field 28
    Until: 12:00,            !- Field 29
    0.3,                     !- Field 30
    Until: 17:00,            !- Field 31
    0.15,                    !- Field 32
    Until: 24:00,            !- Field 33
    0.15,                    !- Field 34
    For: WinterDesignDay,    !- Field 35
    Until: 24:00,            !- Field 36
    0.0,                     !- Field 37
    For: Sunday Holidays AllOtherDays,  !- Field 38
    Until: 24:00,            !- Field 39
    0.15;                    !- Field 40







!- PART1: EEM37_GridDR_LTG_Clean: insert schedule line 589-631 before BLDG_EQUIP_SCH_BASE,     !- Name object.



! ONLY KEEP one DR_EVENT schedule
Schedule:File,
    DR_Event,                !- Name
    Any Number,                  !- Schedule Type Limits Name
    /phome/comstd/CtrlBenefit/simulation/DR_ScheduleFiles/SanFranciscoDR.csv,  !- File Name
    1,                       !- Column Number
    0,                       !- Rows to Skip at Top
    8760,                    !- Number of Hours of Data
    Comma,                   !- Column Separator
    No,                      !- Interpolate to Timestep
    60;                      !- Minutes per Item




!- PART2: EEM37_GridDR_LTG_Clean: insert schedule line 10414-10484 in the end of the file.






! Schedule Office Receptacle,  ASHRAE 90.1-1989, Section 13
! MODIFIED for increased off-hours plug loads (to account for more IT equipment)
! Hours: Weekly: 86.15, Yearly: 4492
Schedule:Compact,
    BLDG_EQUIP_SCH_BASE,     !- Name
    Fraction,                !- Schedule Type Limits Name
    Through: 12/31,          !- Field 1
    For: Weekdays,           !- Field 2
    Until: 08:00,            !- Field 3
    0.40,                    !- Field 4
    Until: 12:00,            !- Field 5
    0.90,                    !- Field 6
    Until: 13:00,            !- Field 7
    0.80,                    !- Field 8
    Until: 17:00,            !- Field 9
    0.90,                    !- Field 10
    Until: 18:00,            !- Field 11
    0.50,                    !- Field 12
    Until: 24:00,            !- Field 13
    0.40,                    !- Field 14
    For: SummerDesignDay,    !- Field 15
    Until: 24:00,            !- Field 16
    1.0,                     !- Field 17
    For: Saturday,           !- Field 18
    Until: 06:00,            !- Field 19
    0.30,                    !- Field 20
    Until: 08:00,            !- Field 21
    0.4,                     !- Field 22
    Until: 12:00,            !- Field 23
    0.5,                     !- Field 24
    Until: 17:00,            !- Field 25
    0.35,                    !- Field 26
    Until: 24:00,            !- Field 27
    0.30,                    !- Field 28
    For: WinterDesignDay,    !- Field 29
    Until: 24:00,            !- Field 30
    0.0,                     !- Field 31
    For: Sunday Holidays AllOtherDays,  !- Field 32
    Until: 24:00,            !- Field 33
    0.30;                    !- Field 34

Schedule:Compact,
    BLDG_EQUIP_SCH_AEDG,     !- Name
    Fraction,                !- Schedule Type Limits Name
    Through: 12/31,          !- Field 1
    For: Weekdays,           !- Field 2
    Until: 08:00,            !- Field 3
    0.30,                    !- Field 4
    Until: 12:00,            !- Field 5
    0.85,                    !- Field 6
    Until: 13:00,            !- Field 7
    0.75,                    !- Field 8
    Until: 17:00,            !- Field 9
    0.85,                    !- Field 10
    Until: 18:00,            !- Field 11
    0.45,                    !- Field 12
    Until: 24:00,            !- Field 13
    0.30,                    !- Field 14
    For: SummerDesignDay,    !- Field 15
    Until: 24:00,            !- Field 16
    1.0,                     !- Field 17
    For: Saturday,           !- Field 18
    Until: 06:00,            !- Field 19
    0.20,                    !- Field 20
    Until: 08:00,            !- Field 21
    0.30,                    !- Field 22
    Until: 12:00,            !- Field 23
    0.35,                    !- Field 24
    Until: 17:00,            !- Field 25
    0.25,                    !- Field 26
    Until: 24:00,            !- Field 27
    0.20,                    !- Field 28
    For: WinterDesignDay,    !- Field 29
    Until: 24:00,            !- Field 30
    0.0,                     !- Field 31
    For: Sunday Holidays AllOtherDays,  !- Field 32
    Until: 24:00,            !- Field 33
    0.20;                    !- Field 34

! Schedule Office Occupancy,
Schedule:Compact,
    BLDG_OCC_SCH,            !- Name
    Fraction,                !- Schedule Type Limits Name
    Through: 12/31,          !- Field 1
    For: Weekdays,           !- Field 2
    Until: 06:00,            !- Field 3
    0.0,                     !- Field 4
    Until: 07:00,            !- Field 5
    0.1,                     !- Field 6
    Until: 08:00,            !- Field 7
    0.2,                     !- Field 8
    Until: 12:00,            !- Field 9
    0.95,                    !- Field 10
    Until: 13:00,            !- Field 11
    0.5,                     !- Field 12
    Until: 17:00,            !- Field 13
    0.95,                    !- Field 14
    Until: 18:00,            !- Field 15
    0.3,                     !- Field 16
    Until: 22:00,            !- Field 17
    0.1,                     !- Field 18
    Until: 24:00,            !- Field 19
    0.05,                    !- Field 20
    For: SummerDesignDay,    !- Field 21
    Until: 06:00,            !- Field 22
    0.0,                     !- Field 23
    Until: 22:00,            !- Field 24
    1.0,                     !- Field 25
    Until: 24:00,            !- Field 26
    0.05,                    !- Field 27
    For: Saturday,           !- Field 28
    Until: 06:00,            !- Field 29
    0.0,                     !- Field 30
    Until: 08:00,            !- Field 31
    0.1,                     !- Field 32
    Until: 12:00,            !- Field 33
    0.3,                     !- Field 34
    Until: 17:00,            !- Field 35
    0.1,                     !- Field 36
    Until: 19:00,            !- Field 37
    0.05,                    !- Field 38
    Until: 24:00,            !- Field 39
    0.0,                     !- Field 40
    For: WinterDesignDay,    !- Field 41
    Until: 24:00,            !- Field 42
    0.0,                     !- Field 43
    For: Sunday Holidays AllOtherDays,  !- Field 44
    Until: 06:00,            !- Field 45
    0.0,                     !- Field 46
    Until: 18:00,            !- Field 47
    0.05,                    !- Field 48
    Until: 24:00,            !- Field 49
    0.0;                     !- Field 50

! Schedule Elevator
Schedule:Compact,
    BLDG_ELEVATORS,          !- Name
    Fraction,                !- Schedule Type Limits Name
    Through: 12/31,          !- Field 1
    For: Weekdays SummerDesignDay,  !- Field 2
    Until: 07:00,            !- Field 3
    0.0,                     !- Field 4
    Until: 08:00,            !- Field 5
    0.35,                    !- Field 6
    Until: 09:00,            !- Field 7
    0.69,                    !- Field 8
    Until: 10:00,            !- Field 9
    0.43,                    !- Field 10
    Until: 11:00,            !- Field 11
    0.37,                    !- Field 12
    Until: 12:00,            !- Field 13
    0.43,                    !- Field 14
    Until: 13:00,            !- Field 15
    0.58,                    !- Field 16
    Until: 14:00,            !- Field 17
    0.48,                    !- Field 18
    Until: 15:00,            !- Field 19
    0.37,                    !- Field 20
    Until: 16:00,            !- Field 21
    0.37,                    !- Field 22
    Until: 17:00,            !- Field 23
    0.46,                    !- Field 24
    Until: 18:00,            !- Field 25
    0.62,                    !- Field 26
    Until: 19:00,            !- Field 27
    0.12,                    !- Field 28
    Until: 20:00,            !- Field 29
    0.04,                    !- Field 30
    Until: 21:00,            !- Field 31
    0.04,                    !- Field 32
    Until: 24:00,            !- Field 33
    0.00,                    !- Field 34
    For: Saturday WinterDesignDay,  !- Field 35
    Until: 07:00,            !- Field 36
    0.0,                     !- Field 37
    Until: 08:00,            !- Field 38
    0.16,                    !- Field 39
    Until: 09:00,            !- Field 40
    0.14,                    !- Field 41
    Until: 10:00,            !- Field 42
    0.21,                    !- Field 43
    Until: 11:00,            !- Field 44
    0.18,                    !- Field 45
    Until: 12:00,            !- Field 46
    0.25,                    !- Field 47
    Until: 13:00,            !- Field 48
    0.21,                    !- Field 49
    Until: 14:00,            !- Field 50
    0.13,                    !- Field 51
    Until: 15:00,            !- Field 52
    0.08,                    !- Field 53
    Until: 16:00,            !- Field 54
    0.04,                    !- Field 55
    Until: 17:00,            !- Field 56
    0.05,                    !- Field 57
    Until: 18:00,            !- Field 58
    0.06,                    !- Field 59
    Until: 24:00,            !- Field 60
    0.00,                    !- Field 61
    For: Sunday Holidays AllOtherDays,  !- Field 62
    Until: 24:00,            !- Field 63
    0.0;                     !- Field 64

Schedule:Compact,
    ELEV_LIGHT_FAN_SCH_Base, !- Name
    Fraction,                !- Schedule Type Limits Name
    Through: 12/31,          !- Field 1
    For: AllDays,            !- Field 2
    Until: 24:00,            !- Field 3
    1;                       !- Field 4

Schedule:Compact,
    ELEV_LIGHT_FAN_SCH_Adv,  !- Name
    Fraction,                !- Schedule Type Limits Name
    Through: 12/31,          !- Field 1
    For: Weekdays,           !- Field 2
    Until: 07:00,            !- Field 3
    0.00,                    !- Field 4
    Until: 08:00,            !- Field 5
    0.35,                    !- Field 6
    Until: 09:00,            !- Field 7
    0.69,                    !- Field 8
    Until: 10:00,            !- Field 9
    0.43,                    !- Field 10
    Until: 11:00,            !- Field 11
    0.37,                    !- Field 12
    Until: 12:00,            !- Field 13
    0.43,                    !- Field 14
    Until: 13:00,            !- Field 15
    0.58,                    !- Field 16
    Until: 14:00,            !- Field 17
    0.48,                    !- Field 18
    Until: 15:00,            !- Field 19
    0.37,                    !- Field 20
    Until: 16:00,            !- Field 21
    0.37,                    !- Field 22
    Until: 17:00,            !- Field 23
    0.46,                    !- Field 24
    Until: 18:00,            !- Field 25
    0.62,                    !- Field 26
    Until: 19:00,            !- Field 27
    0.20,                    !- Field 28
    Until: 20:00,            !- Field 29
    0.12,                    !- Field 30
    Until: 21:00,            !- Field 31
    0.04,                    !- Field 32
    Until: 22:00,            !- Field 33
    0.04,                    !- Field 34
    Until: 23:00,            !- Field 35
    0.00,                    !- Field 36
    Until: 24:00,            !- Field 37
    0.00,                    !- Field 38
    For: Saturday,           !- Field 39
    Until: 07:00,            !- Field 40
    0.00,                    !- Field 41
    Until: 08:00,            !- Field 42
    0.16,                    !- Field 43
    Until: 09:00,            !- Field 44
    0.14,                    !- Field 45
    Until: 10:00,            !- Field 46
    0.21,                    !- Field 47
    Until: 11:00,            !- Field 48
    0.18,                    !- Field 49
    Until: 12:00,            !- Field 50
    0.25,                    !- Field 51
    Until: 13:00,            !- Field 52
    0.21,                    !- Field 53
    Until: 14:00,            !- Field 54
    0.13,                    !- Field 55
    Until: 15:00,            !- Field 56
    0.08,                    !- Field 57
    Until: 16:00,            !- Field 58
    0.04,                    !- Field 59
    Until: 17:00,            !- Field 60
    0.05,                    !- Field 61
    Until: 18:00,            !- Field 62
    0.06,                    !- Field 63
    Until: 24:00,            !- Field 64
    0.00,                    !- Field 65
    For: Sunday Holidays AllOtherDays,  !- Field 66
    Until: 24:00,            !- Field 67
    0.00;                    !- Field 68


! Schedule Office Service Water Heating, ASHRAE 90.1-1989, Section 13
Schedule:Compact,
    BLDG_SWH_SCH,            !- Name