
OS:Version,
  {74963aba-009a-4fed-8c4d-4f142a5fd27b}, !- Handle
  1.9.3;                                  !- Version Identifier

OS:Site,
  {3a27a255-658f-47b0-8d41-98c3904cebc3}, !- Handle
  El Paso International Ap  Ut_TX_USA,    !- Name
  31.77,                                  !- Latitude {deg}
  -106.5,                                 !- Longitude {deg}
  -7,                                     !- Time Zone {hr}
  1186,                                   !- Elevation {m}
  City;                                   !- Terrain

OS:SimulationControl,
  {75087729-49af-48c5-8909-336d1e58d9f2}, !- Handle
  Yes,                                    !- Do Zone Sizing Calculation
  Yes,                                    !- Do System Sizing Calculation
  Yes,                                    !- Do Plant Sizing Calculation
  No,                                     !- Run Simulation for Sizing Periods
  Yes,                                    !- Run Simulation for Weather File Run Periods
  0.04,                                   !- Loads Convergence Tolerance Value
  0.2,                                    !- Temperature Convergence Tolerance Value {deltaC}
  FullInteriorAndExterior,                !- Solar Distribution
  25,                                     !- Maximum Number of Warmup Days
  6;                                      !- Minimum Number of Warmup Days

OS:Surface,
  {0020e956-af10-414f-b906-52e9e91fc081}, !- Handle
  Mult_Class_2_Pod_3_ZN_1_FLR_1_Floor,    !- Name
  Floor,                                  !- Surface Type
  ,                                       !- Construction Name
  {50ee0970-0ed9-436b-87f5-95476acb2001}, !- Space Name
  Ground,                                 !- Outside Boundary Condition
  ,                                       !- Outside Boundary Condition Object
  NoSun,                                  !- Sun Exposure
  NoWind,                                 !- Wind Exposure
  ,                                       !- View Factor to Ground
  ,                                       !- Number of Vertices
  53, 9, 0,                               !- X,Y,Z Vertex 1 {m}
  53, 0, 0,                               !- X,Y,Z Vertex 2 {m}
  0, 0, 0,                                !- X,Y,Z Vertex 3 {m}
  0, 9, 0;                                !- X,Y,Z Vertex 4 {m}

OS:Connection,
  {c2c80a82-e050-4a36-ab14-abd837fd435d}, !- Handle
  {251b0a7f-b382-4c0c-8913-890c45612eea}, !- Name
  ,                                       !- Source Object
  11,                                     !- Outlet Port
  ,                                       !- Target Object
  2;                                      !- Inlet Port

OS:Space,
  {50ee0970-0ed9-436b-87f5-95476acb2001}, !- Handle
  Mult_Class_2_Pod_3_ZN_1_FLR_1,          !- Name
  {f282712f-9c62-4291-ba6e-cf4fdee52e67}, !- Space Type Name
  ,                                       !- Default Construction Set Name
  ,                                       !- Default Schedule Set Name
  0,                                      !- Direction of Relative North {deg}
  11,                                     !- X Origin {m}
  95,                                     !- Y Origin {m}
  0,                                      !- Z Origin {m}
  ,                                       !- Building Story Name
  {57b3f689-3d57-4e27-81a5-c562611b373a}, !- Thermal Zone Name
  Yes,                                    !- Part of Total Floor Area
  ;                                       !- Design Specification Outdoor Air Object Name

OS:Connection,
  {73d832c5-4749-41de-8d2b-7890e0ec66fd}, !- Handle
  {00a9e418-0d14-41d4-9243-b01ff1024d66}, !- Name
  ,                                       !- Source Object
  11,                                     !- Outlet Port
  ,                                       !- Target Object
  2;                                      !- Inlet Port

OS:Space,
  {26566321-1dcb-49a1-bed6-07f14d97f198}, !- Handle
  Mult_Class_2_Pod_1_ZN_1_FLR_2,          !- Name
  {f282712f-9c62-4291-ba6e-cf4fdee52e67}, !- Space Type Name
  ,                                       !- Default Construction Set Name
  ,                                       !- Default Schedule Set Name
  0,                                      !- Direction of Relative North {deg}
  11,                                     !- X Origin {m}
  14,                                     !- Y Origin {m}
  4,                                      !- Z Origin {m}
  ,                                       !- Building Story Name
  {0550c0f3-d45d-42fc-9503-0d3e1757ccd7}, !- Thermal Zone Name
  Yes,                                    !- Part of Total Floor Area
  ;                                       !- Design Specification Outdoor Air Object Name

OS:Surface,
  {4a13f86e-9273-4ae8-8be6-8e8d8c2abb12}, !- Handle
  Mult_Class_2_Pod_2_ZN_1_FLR_1_Wall_1,   !- Name
  Wall,                                   !- Surface Type
  ,                                       !- Construction Name
  {93ac893f-8716-46c2-90db-f9152d164242}, !- Space Name
  Surface,                                !- Outside Boundary Condition
  {74c9d179-2ce0-4f06-b0ae-163083892d1d}, !- Outside Boundary Condition Object
  NoSun,                                  !- Sun Exposure
  NoWind,                                 !- Wind Exposure
  ,                                       !- View Factor to Ground
  ,                                       !- Number of Vertices
  0, 0, 4,                                !- X,Y,Z Vertex 1 {m}
  0, 0, 0,                                !- X,Y,Z Vertex 2 {m}
  53, 0, 0,                               !- X,Y,Z Vertex 3 {m}
  53, 0, 4;                               !- X,Y,Z Vertex 4 {m}

OS:Connection,
  {bf42d1ac-6edd-4526-b73a-27d15aaa5eb4}, !- Handle
  {a49dfa9c-9331-4d69-aa9d-f5ef26b327cc}, !- Name
  ,                                       !- Source Object
  11,                                     !- Outlet Port
  ,                                       !- Target Object
  2;                                      !- Inlet Port

OS:Space,
  {93ac893f-8716-46c2-90db-f9152d164242}, !- Handle
  Mult_Class_2_Pod_2_ZN_1_FLR_1,          !- Name
  {f282712f-9c62-4291-ba6e-cf4fdee52e67}, !- Space Type Name
  ,                                       !- Default Construction Set Name
  ,                                       !- Default Schedule Set Name
  0,                                      !- Direction of Relative North {deg}
  11,                                     !- X Origin {m}
  54,                                     !- Y Origin {m}
  0,                                      !- Z Origin {m}
  ,                                       !- Building Story Name
  {6498395f-9924-4ae7-9387-ba30efe7cd7f}, !- Thermal Zone Name
  Yes,                                    !- Part of Total Floor Area
  ;                                       !- Design Specification Outdoor Air Object Name

OS:Surface,
  {d5514762-f270-4f64-9d7f-0d6e70b39b0f}, !- Handle
  Mult_Class_2_Pod_3_ZN_1_FLR_2_Wall_2,   !- Name
  Wall,                                   !- Surface Type
  ,                                       !- Construction Name
  {536b690f-cbe2-4b0d-b501-9cebdd7f8ddf}, !- Space Name
  Surface,                                !- Outside Boundary Condition
  {2b25449e-ae08-42f5-a594-79df0882c3f2}, !- Outside Boundary Condition Object
  NoSun,                                  !- Sun Exposure
  NoWind,                                 !- Wind Exposure
  ,                                       !- View Factor to Ground
  ,                                       !- Number of Vertices
  53, 0, 4,                               !- X,Y,Z Vertex 1 {m}
  53, 0, 0,                               !- X,Y,Z Vertex 2 {m}
  53, 9, 0,                               !- X,Y,Z Vertex 3 {m}
  53, 9, 4;                               !- X,Y,Z Vertex 4 {m}

OS:Connection,
  {ddfbfe8b-a28e-4a8a-bd6c-c314169ed98c}, !- Handle
  {37b045e6-3924-45b8-80de-2eb7d85caa04}, !- Name
  ,                                       !- Source Object
  11,                                     !- Outlet Port
  ,                                       !- Target Object
  2;                                      !- Inlet Port

OS:Space,
  {536b690f-cbe2-4b0d-b501-9cebdd7f8ddf}, !- Handle
  Mult_Class_2_Pod_3_ZN_1_FLR_2,          !- Name
  {f282712f-9c62-4291-ba6e-cf4fdee52e67}, !- Space Type Name
  ,                                       !- Default Construction Set Name
  ,                                       !- Default Schedule Set Name
  0,                                      !- Direction of Relative North {deg}
  11,                                     !- X Origin {m}
  95,                                     !- Y Origin {m}
  4,                                      !- Z Origin {m}
  ,                                       !- Building Story Name
  {171068fd-138a-428a-ae44-16c95cd5b894}, !- Thermal Zone Name
  Yes,                                    !- Part of Total Floor Area
  ;                                       !- Design Specification Outdoor Air Object Name

OS:Connection,
  {af71b93a-733b-40d5-85e5-5c48369e517f}, !- Handle
  {ea3819ce-557a-4a6a-989b-08612cd9fa31}, !- Name
  ,                                       !- Source Object
  11,                                     !- Outlet Port
  ,                                       !- Target Object
  2;                                      !- Inlet Port

OS:Space,
  {e620baba-ae14-49ab-a245-a4107f2c5827}, !- Handle
  Main_Corridor_ZN_1_FLR_2,               !- Name
  {aefca6e1-d669-4ed8-9891-a0b0136b0873}, !- Space Type Name
  ,                                       !- Default Construction Set Name
  ,                                       !- Default Schedule Set Name
  0,                                      !- Direction of Relative North {deg}
  64,                                     !- X Origin {m}
  14,                                     !- Y Origin {m}
  4,                                      !- Z Origin {m}
  ,                                       !- Building Story Name
  {d1fe3af6-4e39-4732-ab2e-491094195193}, !- Thermal Zone Name
  Yes,                                    !- Part of Total Floor Area
  ;                                       !- Design Specification Outdoor Air Object Name

OS:Surface,
  {ea3cca4e-4bd9-45b8-a3fc-c85cf0f0dc02}, !- Handle
  Aux_Gym_ZN_1_FLR_2_Wall_3,              !- Name
  Wall,                                   !- Surface Type
  ,                                       !- Construction Name
  {edeca913-5819-4fbe-b826-e2c1e4b22cb9}, !- Space Name
  Surface,                                !- Outside Boundary Condition
  {ad49f8da-df05-4e55-9b84-2c6670019a00}, !- Outside Boundary Condition Object
  NoSun,                                  !- Sun Exposure
  NoWind,                                 !- Wind Exposure
  ,                                       !- View Factor to Ground
  ,                                       !- Number of Vertices
  24, 52, 8,                              !- X,Y,Z Vertex 1 {m}
  24, 52, 4,                              !- X,Y,Z Vertex 2 {m}
  0, 52, 4,                               !- X,Y,Z Vertex 3 {m}
  0, 52, 8;                               !- X,Y,Z Vertex 4 {m}

OS:Connection,
  {f54bd571-ecdf-430c-b1c8-d7197cda62ab}, !- Handle
  {91af9d68-8a11-4bf6-bf1a-2c6246db49cf}, !- Name
  ,                                       !- Source Object
  11,                                     !- Outlet Port
  ,                                       !- Target Object
  2;                                      !- Inlet Port

OS:Space,
  {edeca913-5819-4fbe-b826-e2c1e4b22cb9}, !- Handle
  Aux_Gym_ZN_1_FLR_1,                     !- Name
  {70d780ff-d658-4e3f-94e3-b54c91e1b526}, !- Space Type Name
  ,                                       !- Default Construction Set Name
  ,                                       !- Default Schedule Set Name
  0,                                      !- Direction of Relative North {deg}
  117,                                    !- X Origin {m}
  14,                                     !- Y Origin {m}
  0,                                      !- Z Origin {m}
  ,                                       !- Building Story Name
  {c83b6221-998b-4b5e-8ce5-05cfca8f569f}, !- Thermal Zone Name
  Yes,                                    !- Part of Total Floor Area
  ;                                       !- Design Specification Outdoor Air Object Name

OS:SubSurface,
  {3d0b67c4-16ba-456c-8464-bf3e71816af8}, !- Handle
  Mult_Class_2_Pod_3_ZN_1_FLR_2_Wall_3_window_1, !- Name
  FixedWindow,                            !- Sub Surface Type
  ,                                       !- Construction Name
  {37857818-cd21-4407-a852-b193f91dfe00}, !- Surface Name
  ,                                       !- Outside Boundary Condition Object
  ,                                       !- View Factor to Ground
  ,                                       !- Shading Control Name
  ,                                       !- Frame and Divider Name
  1,                                      !- Multiplier
  ,                                       !- Number of Vertices
  52.95, 9, 2.5026,                       !- X,Y,Z Vertex 1 {m}
  52.95, 9, 1.1,                          !- X,Y,Z Vertex 2 {m}
  0.05, 9, 1.1,                           !- X,Y,Z Vertex 3 {m}
  0.05, 9, 2.5026;                        !- X,Y,Z Vertex 4 {m}

OS:Surface,
  {37857818-cd21-4407-a852-b193f91dfe00}, !- Handle
  Mult_Class_2_Pod_3_ZN_1_FLR_2_Wall_3,   !- Name
  Wall,                                   !- Surface Type
  ,                                       !- Construction Name
  {536b690f-cbe2-4b0d-b501-9cebdd7f8ddf}, !- Space Name
  Outdoors,                               !- Outside Boundary Condition
  ,                                       !- Outside Boundary Condition Object
  SunExposed,                             !- Sun Exposure
  WindExposed,                            !- Wind Exposure
  ,                                       !- View Factor to Ground
  ,                                       !- Number of Vertices
  53, 9, 4,                               !- X,Y,Z Vertex 1 {m}
  53, 9, 0,                               !- X,Y,Z Vertex 2 {m}
  0, 9, 0,                                !- X,Y,Z Vertex 3 {m}
  0, 9, 4;                                !- X,Y,Z Vertex 4 {m}

OS:Connection,
  {0f20d1e8-c98f-44d7-a589-16e4ca0d7e89}, !- Handle
  {c2c0d939-35a0-4853-841c-8447bf0d6a75}, !- Name
  ,                                       !- Source Object
  11,                                     !- Outlet Port
  ,                                       !- Target Object
  2;                                      !- Inlet Port

OS:Space,
  {85a8bc0b-baad-4c62-bbad-cea46198cbb4}, !- Handle
  Bathrooms_ZN_1_FLR_2,                   !- Name
  {54f30d10-a817-43f6-9460-ebd34a8e75ab}, !- Space Type Name
  ,                                       !- Default Construction Set Name
  ,                                       !- Default Schedule Set Name
  0,                                      !- Direction of Relative North {deg}
  64,                                     !- X Origin {m}
  90,                                     !- Y Origin {m}
  4,                                      !- Z Origin {m}
  ,                                       !- Building Story Name
  {e98663bb-b602-497b-9e95-a3b115b071d0}, !- Thermal Zone Name
  Yes,                                    !- Part of Total Floor Area
  ;                                       !- Design Specification Outdoor Air Object Name

OS:Surface,
  {a12e593a-b1d9-4e7a-89ca-f65bc2538aa8}, !- Handle
  Main_Corridor_ZN_1_FLR_2_Wall_9,        !- Name
  Wall,                                   !- Surface Type
  ,                                       !- Construction Name
  {e620baba-ae14-49ab-a245-a4107f2c5827}, !- Space Name
  Surface,                                !- Outside Boundary Condition
  {aadac5b6-bf32-471f-8d2a-4445e8155db3}, !- Outside Boundary Condition Object
  NoSun,                                  !- Sun Exposure
  NoWind,                                 !- Wind Exposure
  ,                                       !- View Factor to Ground
  ,                                       !- Number of Vertices
  0, 40, 4,                               !- X,Y,Z Vertex 1 {m}
  0, 40, 0,                               !- X,Y,Z Vertex 2 {m}
  0, 35, 0,                               !- X,Y,Z Vertex 3 {m}
  0, 35, 4;                               !- X,Y,Z Vertex 4 {m}

OS:Surface,
  {d1dc69f0-dd78-435b-9304-a0ee7af53247}, !- Handle
  Corner_Class_2_Pod_3_ZN_1_FLR_2_Wall_3, !- Name
  Wall,                                   !- Surface Type
  ,                                       !- Construction Name
  {3a5deeea-8f81-478e-b658-6a4d6474842b}, !- Space Name
  Outdoors,                               !- Outside Boundary Condition
  ,                                       !- Outside Boundary Condition Object
  SunExposed,                             !- Sun Exposure
  WindExposed,                            !- Wind Exposure
  ,                                       !- View Factor to Ground
  ,                                       !- Number of Vertices
  11, 9, 4,                               !- X,Y,Z Vertex 1 {m}
  11, 9, 0,                               !- X,Y,Z Vertex 2 {m}
  0, 9, 0,                                !- X,Y,Z Vertex 3 {m}
  0, 9, 4;                                !- X,Y,Z Vertex 4 {m}

OS:Connection,
  {be5489d4-d496-497b-aac9-17f9372ff8f6}, !- Handle
  {8a97002f-8cc5-470e-9dbd-282169752ac3}, !- Name
  ,                                       !- Source Object
  11,                                     !- Outlet Port
  ,                                       !- Target Object
  2;                                      !- Inlet Port

OS:Space,
  {3a5deeea-8f81-478e-b658-6a4d6474842b}, !- Handle
  Corner_Class_2_Pod_3_ZN_1_FLR_2,        !- Name
  {f282712f-9c62-4291-ba6e-cf4fdee52e67}, !- Space Type Name
  ,                                       !- Default Construction Set Name
  ,                                       !- Default Schedule Set Name
  0,                                      !- Direction of Relative North {deg}
  0,                                      !- X Origin {m}
  95,                                     !- Y Origin {m}
  4,                                      !- Z Origin {m}
  ,                                       !- Building Story Name
  {4f5f3625-172a-4746-90a9-5366515a566e}, !- Thermal Zone Name
  Yes,                                    !- Part of Total Floor Area
  ;                                       !- Design Specification Outdoor Air Object Name

OS:Connection,
  {93f88122-a72d-440e-9683-3eb90327fa96}, !- Handle
  {d5f59996-ed83-4c85-acae-31e99b46757b}, !- Name
  ,                                       !- Source Object
  11,                                     !- Outlet Port
  ,                                       !- Target Object
  2;                                      !- Inlet Port

OS:Space,
  {1c108ab5-997d-4540-8c67-2ae129bcc357}, !- Handle
  Kitchen_ZN_1_FLR_1,                     !- Name
  {455a3beb-2a0b-43d8-8a5a-f9cac3bdba94}, !- Space Type Name
  ,                                       !- Default Construction Set Name
  ,                                       !- Default Schedule Set Name
  0,                                      !- Direction of Relative North {deg}
  117,                                    !- X Origin {m}
  66,                                     !- Y Origin {m}
  0,                                      !- Z Origin {m}
  ,                                       !- Building Story Name
  {65ab44cc-2378-43cf-af0a-68b7a9f359dc}, !- Thermal Zone Name
  Yes,                                    !- Part of Total Floor Area
  ;                                       !- Design Specification Outdoor Air Object Name

OS:Surface,
  {9f3c5eb2-9790-431b-a27a-ae62ef9bf2fa}, !- Handle
  Gym_ZN_1_FLR_1_Wall_3,                  !- Name
  Wall,                                   !- Surface Type
  ,                                       !- Construction Name
  {bbc33dab-14a9-4550-b9f1-24bc3cbb5bcc}, !- Space Name
  Surface,                                !- Outside Boundary Condition
  {9dbf29f3-e592-4d89-881e-41170fb805de}, !- Outside Boundary Condition Object
  NoSun,                                  !- Sun Exposure
  NoWind,                                 !- Wind Exposure
  ,                                       !- View Factor to Ground
  ,                                       !- Number of Vertices
  38, 52, 4,                              !- X,Y,Z Vertex 1 {m}
  38, 52, 0,                              !- X,Y,Z Vertex 2 {m}
  0, 52, 0,                               !- X,Y,Z Vertex 3 {m}
  0, 52, 4;                               !- X,Y,Z Vertex 4 {m}

OS:Connection,
  {707a3915-c917-4a1c-9d75-79c7abeac452}, !- Handle
  {48aa7250-6fdb-4066-9815-3020846e037a}, !- Name
  ,                                       !- Source Object
  11,                                     !- Outlet Port
  ,                                       !- Target Object
  2;                                      !- Inlet Port

OS:Space,
  {bbc33dab-14a9-4550-b9f1-24bc3cbb5bcc}, !- Handle
  Gym_ZN_1_FLR_1,                         !- Name
  {36c6848c-49f0-4f7f-b021-d92126660ffd}, !- Space Type Name
  ,                                       !- Default Construction Set Name
  ,                                       !- Default Schedule Set Name
  0,                                      !- Direction of Relative North {deg}
  79,                                     !- X Origin {m}
  14,                                     !- Y Origin {m}
  0,                                      !- Z Origin {m}
  ,                                       !- Building Story Name
  {77adc2b5-9119-4432-a732-8cfa64645638}, !- Thermal Zone Name
  Yes,                                    !- Part of Total Floor Area
  ;                                       !- Design Specification Outdoor Air Object Name

OS:SubSurface,
  {5cd948fa-9ec3-4a4c-8d9a-2c886b66b008}, !- Handle
  Lobby_ZN_1_FLR_2_Wall_1_window_1,       !- Name
  FixedWindow,                            !- Sub Surface Type
  ,                                       !- Construction Name
  {bed07505-8b19-49d8-91bf-05d45015ee8e}, !- Surface Name
  ,                                       !- Outside Boundary Condition Object
  ,                                       !- View Factor to Ground
  ,                                       !- Shading Control Name
  ,                                       !- Frame and Divider Name
  1,                                      !- Multiplier
  ,                                       !- Number of Vertices
  0.05, 0, 2.5094,                        !- X,Y,Z Vertex 1 {m}
  0.05, 0, 1.1,                           !- X,Y,Z Vertex 2 {m}
  14.95, 0, 1.1,                          !- X,Y,Z Vertex 3 {m}
  14.95, 0, 2.5094;                       !- X,Y,Z Vertex 4 {m}

OS:Surface,
  {bed07505-8b19-49d8-91bf-05d45015ee8e}, !- Handle
  Lobby_ZN_1_FLR_2_Wall_1,                !- Name
  Wall,                                   !- Surface Type
  ,                                       !- Construction Name
  {a361ad25-37e4-44e9-b05c-68a11f83f419}, !- Space Name
  Outdoors,                               !- Outside Boundary Condition
  ,                                       !- Outside Boundary Condition Object
  SunExposed,                             !- Sun Exposure
  WindExposed,                            !- Wind Exposure
  ,                                       !- View Factor to Ground
  ,                                       !- Number of Vertices
  0, 0, 4,                                !- X,Y,Z Vertex 1 {m}
  0, 0, 0,                                !- X,Y,Z Vertex 2 {m}
  15, 0, 0,                               !- X,Y,Z Vertex 3 {m}
  15, 0, 4;                               !- X,Y,Z Vertex 4 {m}

OS:Connection,
  {85e59911-4f11-40dd-b476-c903fb61aaee}, !- Handle
  {bccfcf2b-fc58-4afa-aef4-3ca83c6fee1c}, !- Name
  ,                                       !- Source Object
  11,                                     !- Outlet Port
  ,                                       !- Target Object
  2;                                      !- Inlet Port

OS:Space,
  {a361ad25-37e4-44e9-b05c-68a11f83f419}, !- Handle
  Lobby_ZN_1_FLR_2,                       !- Name
  {4178e21a-0625-43d1-a4e3-b3418bb70840}, !- Space Type Name
  ,                                       !- Default Construction Set Name
  ,                                       !- Default Schedule Set Name
  0,                                      !- Direction of Relative North {deg}
  64,                                     !- X Origin {m}
  0,                                      !- Y Origin {m}
  4,                                      !- Z Origin {m}
  ,                                       !- Building Story Name
  {464a363a-8102-4132-8079-b0afaf4d29a1}, !- Thermal Zone Name
  Yes,                                    !- Part of Total Floor Area
  ;                                       !- Design Specification Outdoor Air Object Name

OS:Surface,
  {ecae76d4-bd66-4372-9cf7-2a90be3e93be}, !- Handle
  Mech_ZN_1_FLR_2_Wall_2,                 !- Name
  Wall,                                   !- Surface Type
  ,                                       !- Construction Name
  {0442b7e5-d7d9-4c6d-945d-6af83f402da2}, !- Space Name
  Surface,                                !- Outside Boundary Condition
  {6bc2c081-ff97-4cf4-bd35-280ec64ef457}, !- Outside Boundary Condition Object
  NoSun,                                  !- Sun Exposure
  NoWind,                                 !- Wind Exposure
  ,                                       !- View Factor to Ground
  ,                                       !- Number of Vertices
  38, 0, 4,                               !- X,Y,Z Vertex 1 {m}
  38, 0, 0,                               !- X,Y,Z Vertex 2 {m}
  38, 9, 0,                               !- X,Y,Z Vertex 3 {m}
  38, 9, 4;                               !- X,Y,Z Vertex 4 {m}

OS:Connection,
  {ed220d19-9544-4429-b7b1-4b9e00b42dca}, !- Handle
  {cc4666dd-cc0a-49e2-9a72-ab8c13c3e0fb}, !- Name
  ,                                       !- Source Object
  11,                                     !- Outlet Port
  ,                                       !- Target Object
  2;                                      !- Inlet Port

OS:Space,
  {0442b7e5-d7d9-4c6d-945d-6af83f402da2}, !- Handle
  Mech_ZN_1_FLR_2,                        !- Name
  {45d56029-40ee-44ab-addf-b9575b6d541c}, !- Space Type Name
  ,                                       !- Default Construction Set Name
  ,                                       !- Default Schedule Set Name
  0,                                      !- Direction of Relative North {deg}
  79,                                     !- X Origin {m}
  66,                                     !- Y Origin {m}
  4,                                      !- Z Origin {m}
  ,                                       !- Building Story Name
  {70d1f9a5-89b2-49a8-ae76-456170b89201}, !- Thermal Zone Name
  Yes,                                    !- Part of Total Floor Area
  ;                                       !- Design Specification Outdoor Air Object Name

OS:Surface,
  {e518b2a6-8ec7-4f12-846a-d74cbdedabd5}, !- Handle
  Mult_Class_2_Pod_1_ZN_1_FLR_1_Wall_2,   !- Name
  Wall,                                   !- Surface Type
  ,                                       !- Construction Name
  {1808cd56-9633-47f5-95fc-231199b7d80c}, !- Space Name
  Surface,                                !- Outside Boundary Condition
  {6b2c8fbe-9889-499f-8c32-a0121701534c}, !- Outside Boundary Condition Object
  NoSun,                                  !- Sun Exposure
  NoWind,                                 !- Wind Exposure
  ,                                       !- View Factor to Ground
  ,                                       !- Number of Vertices
  53, 0, 4,                               !- X,Y,Z Vertex 1 {m}
  53, 0, 0,                               !- X,Y,Z Vertex 2 {m}
  53, 9, 0,                               !- X,Y,Z Vertex 3 {m}
  53, 9, 4;                               !- X,Y,Z Vertex 4 {m}

OS:Connection,
  {8a93e853-baa0-456c-b577-3aba15efb05b}, !- Handle
  {fe108f02-d5f2-4a08-a20b-d2c986bf06d9}, !- Name
  ,                                       !- Source Object
  11,                                     !- Outlet Port
  ,                                       !- Target Object
  2;                                      !- Inlet Port

OS:Space,
  {1808cd56-9633-47f5-95fc-231199b7d80c}, !- Handle
  Mult_Class_2_Pod_1_ZN_1_FLR_1,          !- Name
  {f282712f-9c62-4291-ba6e-cf4fdee52e67}, !- Space Type Name
  ,                                       !- Default Construction Set Name
  ,                                       !- Default Schedule Set Name
  0,                                      !- Direction of Relative North {deg}
  11,                                     !- X Origin {m}
  14,                                     !- Y Origin {m}
  0,                                      !- Z Origin {m}
  ,                                       !- Building Story Name
  {0584a7aa-15af-48dd-844f-94ed9b96dd40}, !- Thermal Zone Name
  Yes,                                    !- Part of Total Floor Area
  ;                                       !- Design Specification Outdoor Air Object Name

OS:Surface,
  {9dbf29f3-e592-4d89-881e-41170fb805de}, !- Handle
  Mech_ZN_1_FLR_1_Wall_1,                 !- Name
  Wall,                                   !- Surface Type
  ,                                       !- Construction Name
  {b1738f34-636c-45da-8bef-433046bfb093}, !- Space Name
  Surface,                                !- Outside Boundary Condition
  {9f3c5eb2-9790-431b-a27a-ae62ef9bf2fa}, !- Outside Boundary Condition Object
  NoSun,                                  !- Sun Exposure